/*---------------------------------------------------------------------------*\
  =========                 |
  \\      /  F ield         | OpenFOAM: The Open Source CFD Toolbox
   \\    /   O peration     | Website:  https://openfoam.org
    \\  /    A nd           | Version:  dev
     \\/     M anipulation  |
\*---------------------------------------------------------------------------*/
Build  : dev-6054ea53b9ab
Exec   : pisoFoam
Date   : Jun 29 2021
Time   : 17:15:50
Host   : "cyprien-bpro"
PID    : 23758
I/O    : uncollated
Case   : /home/cyprien/OpenFOAM/cyprien-dev/run/pitzDaily
nProcs : 1
sigFpe : Enabling floating point exception trapping (FOAM_SIGFPE).
fileModificationChecking : Monitoring run-time modified files using timeStampMaster (fileModificationSkew 10)
allowSystemOperations : Allowing user-supplied system call operations

// * * * * * * * * * * * * * * * * * * * * * * * * * * * * * * * * * * * * * //
Create time

Create mesh for time = 0

Reading field p

Reading field U

Reading/calculating face flux field phi

Selecting incompressible transport model Newtonian
Selecting turbulence model type RAS
Selecting RAS turbulence model kEpsilon
RAS
{
    model           kEpsilon;
    turbulence      on;
    printCoeffs     on;
    Cmu             0.09;
    C1              1.44;
    C2              1.92;
    C3              0;
    sigmak          1;
    sigmaEps        1.3;
}

No MRF models present

No fvModels present
No fvConstraints present

Starting time loop

Time = 0.0002

Courant Number mean: 0 max: 0
smoothSolver:  Solving for Ux, Initial residual = 1, Final residual = 7.25632e-08, No Iterations 3
smoothSolver:  Solving for Uy, Initial residual = 0, Final residual = 0, No Iterations 0
smoothSolver:  Solving for Uz, Initial residual = 1, Final residual = 4.65192e-08, No Iterations 3
GAMG:  Solving for p, Initial residual = 1, Final residual = 0.0739092, No Iterations 2
time step continuity errors : sum local = 1.04527e-07, global = -5.27097e-12, cumulative = -5.27097e-12
GAMG:  Solving for p, Initial residual = 0.296686, Final residual = 0.019453, No Iterations 1
time step continuity errors : sum local = 7.03826e-08, global = 2.70175e-12, cumulative = -2.56922e-12
GAMG:  Solving for p, Initial residual = 0.0425154, Final residual = 0.00337218, No Iterations 2
time step continuity errors : sum local = 1.46062e-08, global = 1.9407e-11, cumulative = 1.68378e-11
GAMG:  Solving for p, Initial residual = 0.0356368, Final residual = 0.00219186, No Iterations 1
time step continuity errors : sum local = 9.93977e-09, global = 2.30573e-11, cumulative = 3.9895e-11
GAMG:  Solving for p, Initial residual = 0.00535804, Final residual = 4.43871e-07, No Iterations 11
time step continuity errors : sum local = 2.0747e-12, global = 2.38835e-13, cumulative = 4.01339e-11
smoothSolver:  Solving for epsilon, Initial residual = 0.00748392, Final residual = 3.5581e-07, No Iterations 2
bounding epsilon, min: -0.0376276 max: 1.53263 average: 0.0168963
smoothSolver:  Solving for k, Initial residual = 1, Final residual = 1.41015e-07, No Iterations 3
ExecutionTime = 0.13 s  ClockTime = 1 s

Time = 0.0004

Courant Number mean: 7.36324e-06 max: 0.00126019
smoothSolver:  Solving for Ux, Initial residual = 0.222195, Final residual = 7.16834e-06, No Iterations 2
smoothSolver:  Solving for Uy, Initial residual = 0.329627, Final residual = 5.6992e-06, No Iterations 2
smoothSolver:  Solving for Uz, Initial residual = 0.397976, Final residual = 8.38649e-06, No Iterations 2
GAMG:  Solving for p, Initial residual = 0.301202, Final residual = 0.0144312, No Iterations 1
time step continuity errors : sum local = 8.51405e-08, global = 2.4915e-12, cumulative = 4.26254e-11
GAMG:  Solving for p, Initial residual = 0.0413835, Final residual = 0.00316897, No Iterations 1
time step continuity errors : sum local = 2.25811e-08, global = 1.56029e-12, cumulative = 4.41856e-11
GAMG:  Solving for p, Initial residual = 0.00843663, Final residual = 0.000305502, No Iterations 2
time step continuity errors : sum local = 2.18242e-09, global = 3.04304e-13, cumulative = 4.44899e-11
GAMG:  Solving for p, Initial residual = 0.00240631, Final residual = 0.000182347, No Iterations 1
time step continuity errors : sum local = 1.30407e-09, global = -2.42981e-13, cumulative = 4.4247e-11
GAMG:  Solving for p, Initial residual = 0.000441556, Final residual = 9.19493e-07, No Iterations 7
time step continuity errors : sum local = 6.57852e-12, global = -3.93737e-13, cumulative = 4.38532e-11
smoothSolver:  Solving for epsilon, Initial residual = 0.0175733, Final residual = 8.27738e-07, No Iterations 2
smoothSolver:  Solving for k, Initial residual = 0.226819, Final residual = 7.63586e-08, No Iterations 3
ExecutionTime = 0.19 s  ClockTime = 1 s

Time = 0.0006

Courant Number mean: 1.51071e-05 max: 0.0026597
smoothSolver:  Solving for Ux, Initial residual = 0.138508, Final residual = 2.06362e-07, No Iterations 3
smoothSolver:  Solving for Uy, Initial residual = 0.208116, Final residual = 9.19648e-06, No Iterations 2
smoothSolver:  Solving for Uz, Initial residual = 0.294123, Final residual = 2.97305e-07, No Iterations 3
GAMG:  Solving for p, Initial residual = 0.319762, Final residual = 0.0163494, No Iterations 1
time step continuity errors : sum local = 1.63746e-07, global = 3.00157e-12, cumulative = 4.68548e-11
GAMG:  Solving for p, Initial residual = 0.0461739, Final residual = 0.003428, No Iterations 1
time step continuity errors : sum local = 4.43884e-08, global = 3.25917e-12, cumulative = 5.0114e-11
GAMG:  Solving for p, Initial residual = 0.00985817, Final residual = 0.000970274, No Iterations 1
time step continuity errors : sum local = 1.26049e-08, global = 3.23814e-12, cumulative = 5.33521e-11
GAMG:  Solving for p, Initial residual = 0.00277763, Final residual = 0.000184374, No Iterations 2
time step continuity errors : sum local = 2.40062e-09, global = 2.98111e-12, cumulative = 5.63332e-11
GAMG:  Solving for p, Initial residual = 0.0015809, Final residual = 6.3416e-07, No Iterations 8
time step continuity errors : sum local = 8.27127e-12, global = 5.45155e-13, cumulative = 5.68784e-11
smoothSolver:  Solving for epsilon, Initial residual = 0.0380715, Final residual = 8.2585e-06, No Iterations 2
bounding epsilon, min: -0.00766359 max: 1.71315 average: 0.0199057
smoothSolver:  Solving for k, Initial residual = 0.147616, Final residual = 5.70023e-07, No Iterations 3
ExecutionTime = 0.26 s  ClockTime = 1 s

Time = 0.0008

Courant Number mean: 2.37497e-05 max: 0.00478641
smoothSolver:  Solving for Ux, Initial residual = 0.11482, Final residual = 2.0891e-06, No Iterations 3
smoothSolver:  Solving for Uy, Initial residual = 0.17565, Final residual = 7.92776e-07, No Iterations 3
smoothSolver:  Solving for Uz, Initial residual = 0.251838, Final residual = 3.17076e-06, No Iterations 3
GAMG:  Solving for p, Initial residual = 0.30716, Final residual = 0.0159157, No Iterations 1
time step continuity errors : sum local = 2.87725e-07, global = 4.89285e-12, cumulative = 6.17712e-11
GAMG:  Solving for p, Initial residual = 0.0463459, Final residual = 0.00339136, No Iterations 1
time step continuity errors : sum local = 7.93876e-08, global = 5.07374e-12, cumulative = 6.6845e-11
GAMG:  Solving for p, Initial residual = 0.0102101, Final residual = 0.000926176, No Iterations 1
time step continuity errors : sum local = 2.17331e-08, global = 5.6034e-12, cumulative = 7.24484e-11
GAMG:  Solving for p, Initial residual = 0.00289287, Final residual = 0.000185221, No Iterations 2
time step continuity errors : sum local = 4.35551e-09, global = 5.79933e-12, cumulative = 7.82477e-11
GAMG:  Solving for p, Initial residual = 0.00157526, Final residual = 6.99842e-07, No Iterations 8
time step continuity errors : sum local = 1.64841e-11, global = 1.10345e-12, cumulative = 7.93511e-11
smoothSolver:  Solving for epsilon, Initial residual = 0.0620238, Final residual = 1.10541e-06, No Iterations 3
bounding epsilon, min: -0.00429198 max: 5.85778 average: 0.0252596
smoothSolver:  Solving for k, Initial residual = 0.109666, Final residual = 5.27312e-06, No Iterations 3
ExecutionTime = 0.33 s  ClockTime = 1 s

Time = 0.001

Courant Number mean: 3.40801e-05 max: 0.00799366
smoothSolver:  Solving for Ux, Initial residual = 0.101681, Final residual = 9.00713e-06, No Iterations 3
smoothSolver:  Solving for Uy, Initial residual = 0.158756, Final residual = 2.85194e-06, No Iterations 3
smoothSolver:  Solving for Uz, Initial residual = 0.212553, Final residual = 6.42009e-07, No Iterations 4
GAMG:  Solving for p, Initial residual = 0.254029, Final residual = 0.0131129, No Iterations 1
time step continuity errors : sum local = 3.9429e-07, global = 4.40505e-12, cumulative = 8.37562e-11
GAMG:  Solving for p, Initial residual = 0.0403632, Final residual = 0.00293239, No Iterations 1
time step continuity errors : sum local = 1.09913e-07, global = 4.3675e-12, cumulative = 8.81237e-11
GAMG:  Solving for p, Initial residual = 0.00952073, Final residual = 0.000835128, No Iterations 1
time step continuity errors : sum local = 3.13589e-08, global = 5.9888e-12, cumulative = 9.41125e-11
GAMG:  Solving for p, Initial residual = 0.00258412, Final residual = 0.000155521, No Iterations 2
time step continuity errors : sum local = 5.84973e-09, global = 7.5728e-12, cumulative = 1.01685e-10
GAMG:  Solving for p, Initial residual = 0.00133066, Final residual = 6.16778e-07, No Iterations 8
time step continuity errors : sum local = 2.32311e-11, global = 1.52285e-12, cumulative = 1.03208e-10
smoothSolver:  Solving for epsilon, Initial residual = 0.0700539, Final residual = 7.89152e-06, No Iterations 3
bounding epsilon, min: -0.00297241 max: 16.2521 average: 0.0366789
smoothSolver:  Solving for k, Initial residual = 0.0832678, Final residual = 1.63995e-06, No Iterations 4
ExecutionTime = 0.4 s  ClockTime = 1 s

Time = 0.0012

Courant Number mean: 4.6334e-05 max: 0.0117217
smoothSolver:  Solving for Ux, Initial residual = 0.087126, Final residual = 1.48583e-06, No Iterations 4
smoothSolver:  Solving for Uy, Initial residual = 0.141659, Final residual = 6.51541e-06, No Iterations 3
smoothSolver:  Solving for Uz, Initial residual = 0.169493, Final residual = 1.56976e-06, No Iterations 4
GAMG:  Solving for p, Initial residual = 0.185768, Final residual = 0.00969835, No Iterations 1
time step continuity errors : sum local = 4.26093e-07, global = 3.16653e-12, cumulative = 1.06375e-10
GAMG:  Solving for p, Initial residual = 0.0312498, Final residual = 0.00237742, No Iterations 1
time step continuity errors : sum local = 1.22964e-07, global = 1.22727e-12, cumulative = 1.07602e-10
GAMG:  Solving for p, Initial residual = 0.00759844, Final residual = 0.000697352, No Iterations 1
time step continuity errors : sum local = 3.61204e-08, global = 3.45937e-12, cumulative = 1.11061e-10
GAMG:  Solving for p, Initial residual = 0.00209435, Final residual = 0.000123899, No Iterations 2
time step continuity errors : sum local = 6.42608e-09, global = 3.29046e-12, cumulative = 1.14352e-10
GAMG:  Solving for p, Initial residual = 0.0010548, Final residual = 9.27035e-07, No Iterations 7
time step continuity errors : sum local = 4.81286e-11, global = 3.10793e-12, cumulative = 1.1746e-10
smoothSolver:  Solving for epsilon, Initial residual = 0.054596, Final residual = 1.03534e-06, No Iterations 4
bounding epsilon, min: -0.000942778 max: 79.529 average: 0.0645225
smoothSolver:  Solving for k, Initial residual = 0.0633837, Final residual = 5.1166e-06, No Iterations 4
ExecutionTime = 0.47 s  ClockTime = 1 s

Time = 0.0014

Courant Number mean: 6.00199e-05 max: 0.0156144
smoothSolver:  Solving for Ux, Initial residual = 0.0724195, Final residual = 1.39138e-06, No Iterations 4
smoothSolver:  Solving for Uy, Initial residual = 0.124191, Final residual = 1.07865e-06, No Iterations 4
smoothSolver:  Solving for Uz, Initial residual = 0.130301, Final residual = 2.31848e-06, No Iterations 4
GAMG:  Solving for p, Initial residual = 0.125031, Final residual = 0.00634857, No Iterations 1
time step continuity errors : sum local = 3.60674e-07, global = 2.1295e-12, cumulative = 1.19589e-10
GAMG:  Solving for p, Initial residual = 0.0201872, Final residual = 0.00165522, No Iterations 1
time step continuity errors : sum local = 1.04411e-07, global = 2.30192e-13, cumulative = 1.19819e-10
GAMG:  Solving for p, Initial residual = 0.00494916, Final residual = 0.00019021, No Iterations 2
time step continuity errors : sum local = 1.20168e-08, global = 4.96929e-14, cumulative = 1.19869e-10
GAMG:  Solving for p, Initial residual = 0.0018161, Final residual = 0.00014156, No Iterations 1
time step continuity errors : sum local = 8.95452e-09, global = -1.00036e-13, cumulative = 1.19769e-10
GAMG:  Solving for p, Initial residual = 0.000357442, Final residual = 9.83087e-07, No Iterations 6
time step continuity errors : sum local = 6.22311e-11, global = 2.77966e-12, cumulative = 1.22549e-10
smoothSolver:  Solving for epsilon, Initial residual = 0.0401573, Final residual = 1.6651e-06, No Iterations 4
bounding epsilon, min: -0.0234931 max: 257.611 average: 0.117481
smoothSolver:  Solving for k, Initial residual = 0.0476776, Final residual = 6.67109e-06, No Iterations 4
ExecutionTime = 0.53 s  ClockTime = 1 s

Time = 0.0016

Courant Number mean: 7.43061e-05 max: 0.0191023
smoothSolver:  Solving for Ux, Initial residual = 0.0599381, Final residual = 1.01426e-06, No Iterations 4
smoothSolver:  Solving for Uy, Initial residual = 0.106551, Final residual = 1.63261e-06, No Iterations 4
smoothSolver:  Solving for Uz, Initial residual = 0.102609, Final residual = 2.2969e-06, No Iterations 4
GAMG:  Solving for p, Initial residual = 0.0887374, Final residual = 0.00432365, No Iterations 1
time step continuity errors : sum local = 2.87271e-07, global = 4.96984e-12, cumulative = 1.27519e-10
GAMG:  Solving for p, Initial residual = 0.0142781, Final residual = 0.00114321, No Iterations 1
time step continuity errors : sum local = 8.08905e-08, global = 3.84857e-12, cumulative = 1.31367e-10
GAMG:  Solving for p, Initial residual = 0.00340133, Final residual = 0.000134401, No Iterations 2
time step continuity errors : sum local = 9.52478e-09, global = 3.21689e-12, cumulative = 1.34584e-10
GAMG:  Solving for p, Initial residual = 0.00123209, Final residual = 9.56422e-05, No Iterations 1
time step continuity errors : sum local = 6.78346e-09, global = 2.97074e-12, cumulative = 1.37555e-10
GAMG:  Solving for p, Initial residual = 0.000244393, Final residual = 6.20278e-07, No Iterations 6
time step continuity errors : sum local = 4.40138e-11, global = 2.24303e-12, cumulative = 1.39798e-10
smoothSolver:  Solving for epsilon, Initial residual = 0.0301994, Final residual = 1.70303e-06, No Iterations 4
bounding epsilon, min: -0.0435603 max: 465.711 average: 0.192091
smoothSolver:  Solving for k, Initial residual = 0.0364295, Final residual = 5.76398e-06, No Iterations 4
ExecutionTime = 0.59 s  ClockTime = 1 s

Time = 0.0018

Courant Number mean: 8.81955e-05 max: 0.0217204
smoothSolver:  Solving for Ux, Initial residual = 0.050848, Final residual = 9.9967e-06, No Iterations 3
smoothSolver:  Solving for Uy, Initial residual = 0.0898068, Final residual = 4.21184e-06, No Iterations 4
smoothSolver:  Solving for Uz, Initial residual = 0.0855167, Final residual = 1.43149e-06, No Iterations 4
GAMG:  Solving for p, Initial residual = 0.0699552, Final residual = 0.00335793, No Iterations 1
time step continuity errors : sum local = 2.44594e-07, global = 9.99594e-12, cumulative = 1.49794e-10
GAMG:  Solving for p, Initial residual = 0.0122438, Final residual = 0.000871088, No Iterations 1
time step continuity errors : sum local = 6.5878e-08, global = 9.90333e-12, cumulative = 1.59697e-10
GAMG:  Solving for p, Initial residual = 0.00277419, Final residual = 0.000266432, No Iterations 1
time step continuity errors : sum local = 2.01877e-08, global = 9.16433e-12, cumulative = 1.68861e-10
GAMG:  Solving for p, Initial residual = 0.000732221, Final residual = 4.35377e-05, No Iterations 2
time step continuity errors : sum local = 3.30009e-09, global = 7.12914e-12, cumulative = 1.75991e-10
GAMG:  Solving for p, Initial residual = 0.000348979, Final residual = 9.19751e-07, No Iterations 5
time step continuity errors : sum local = 6.97316e-11, global = 4.72726e-12, cumulative = 1.80718e-10
smoothSolver:  Solving for epsilon, Initial residual = 0.0240643, Final residual = 1.46606e-06, No Iterations 4
bounding epsilon, min: -0.0444776 max: 607.969 average: 0.277149
smoothSolver:  Solving for k, Initial residual = 0.0288266, Final residual = 4.29309e-06, No Iterations 4
bounding k, min: -0.000864864 max: 3.80688 average: 0.013048
ExecutionTime = 0.65 s  ClockTime = 1 s

Time = 0.002

Courant Number mean: 0.000101065 max: 0.0234759
smoothSolver:  Solving for Ux, Initial residual = 0.0600816, Final residual = 9.58076e-06, No Iterations 11
smoothSolver:  Solving for Uy, Initial residual = 0.165551, Final residual = 9.57441e-06, No Iterations 18
smoothSolver:  Solving for Uz, Initial residual = 0.0806852, Final residual = 9.86861e-06, No Iterations 16
GAMG:  Solving for p, Initial residual = 0.0724173, Final residual = 0.00465536, No Iterations 1
time step continuity errors : sum local = 3.58136e-07, global = 8.31296e-12, cumulative = 1.89031e-10
GAMG:  Solving for p, Initial residual = 0.0143197, Final residual = 0.00130603, No Iterations 1
time step continuity errors : sum local = 1.03854e-07, global = 1.86228e-11, cumulative = 2.07654e-10
GAMG:  Solving for p, Initial residual = 0.00396682, Final residual = 0.000185943, No Iterations 2
time step continuity errors : sum local = 1.48126e-08, global = 2.95484e-11, cumulative = 2.37202e-10
GAMG:  Solving for p, Initial residual = 0.00170976, Final residual = 0.000138054, No Iterations 1
time step continuity errors : sum local = 1.09948e-08, global = 3.04447e-11, cumulative = 2.67647e-10
GAMG:  Solving for p, Initial residual = 0.000472252, Final residual = 9.32108e-07, No Iterations 7
time step continuity errors : sum local = 7.4215e-11, global = 8.79835e-12, cumulative = 2.76445e-10
smoothSolver:  Solving for epsilon, Initial residual = 0.021449, Final residual = 6.87671e-06, No Iterations 5
bounding epsilon, min: -0.456086 max: 696.404 average: 0.365603
smoothSolver:  Solving for k, Initial residual = 0.0267261, Final residual = 8.13122e-06, No Iterations 9
ExecutionTime = 0.8 s  ClockTime = 1 s

Time = 0.0022

Courant Number mean: 0.000112577 max: 0.0245504
smoothSolver:  Solving for Ux, Initial residual = 0.0407764, Final residual = 5.3922e-06, No Iterations 4
smoothSolver:  Solving for Uy, Initial residual = 0.0757201, Final residual = 3.58547e-06, No Iterations 6
smoothSolver:  Solving for Uz, Initial residual = 0.065003, Final residual = 3.56565e-06, No Iterations 5
GAMG:  Solving for p, Initial residual = 0.0812623, Final residual = 0.00499115, No Iterations 1
time step continuity errors : sum local = 4.04539e-07, global = 1.70568e-11, cumulative = 2.93502e-10
GAMG:  Solving for p, Initial residual = 0.0165751, Final residual = 0.00145183, No Iterations 1
time step continuity errors : sum local = 1.17118e-07, global = 1.41071e-11, cumulative = 3.07609e-10
GAMG:  Solving for p, Initial residual = 0.00519702, Final residual = 0.000519287, No Iterations 1
time step continuity errors : sum local = 4.18831e-08, global = 8.21947e-12, cumulative = 3.15828e-10
GAMG:  Solving for p, Initial residual = 0.00142448, Final residual = 9.99527e-05, No Iterations 2
time step continuity errors : sum local = 8.06315e-09, global = -2.5682e-12, cumulative = 3.1326e-10
GAMG:  Solving for p, Initial residual = 0.000720244, Final residual = 9.86488e-07, No Iterations 6
time step continuity errors : sum local = 7.95926e-11, global = -7.57363e-12, cumulative = 3.05687e-10
smoothSolver:  Solving for epsilon, Initial residual = 0.0168834, Final residual = 8.87617e-07, No Iterations 4
bounding epsilon, min: -0.0533265 max: 754.353 average: 0.45567
smoothSolver:  Solving for k, Initial residual = 0.0200043, Final residual = 2.13966e-06, No Iterations 4
ExecutionTime = 0.87 s  ClockTime = 1 s

Time = 0.0024

Courant Number mean: 0.000122984 max: 0.0251191
smoothSolver:  Solving for Ux, Initial residual = 0.0333118, Final residual = 4.79586e-06, No Iterations 3
smoothSolver:  Solving for Uy, Initial residual = 0.053635, Final residual = 6.43524e-06, No Iterations 3
smoothSolver:  Solving for Uz, Initial residual = 0.0522472, Final residual = 7.36827e-06, No Iterations 3
GAMG:  Solving for p, Initial residual = 0.054723, Final residual = 0.0027156, No Iterations 1
time step continuity errors : sum local = 2.19783e-07, global = -1.99187e-11, cumulative = 2.85768e-10
GAMG:  Solving for p, Initial residual = 0.0110981, Final residual = 0.000847789, No Iterations 1
time step continuity errors : sum local = 6.85814e-08, global = -1.76575e-11, cumulative = 2.6811e-10
GAMG:  Solving for p, Initial residual = 0.00249148, Final residual = 9.71687e-05, No Iterations 2
time step continuity errors : sum local = 7.85924e-09, global = -2.43736e-11, cumulative = 2.43737e-10
GAMG:  Solving for p, Initial residual = 0.000892336, Final residual = 6.70249e-05, No Iterations 1
time step continuity errors : sum local = 5.41926e-09, global = -2.53982e-11, cumulative = 2.18338e-10
GAMG:  Solving for p, Initial residual = 0.000193034, Final residual = 6.50323e-07, No Iterations 7
time step continuity errors : sum local = 5.25704e-11, global = -3.05181e-12, cumulative = 2.15287e-10
smoothSolver:  Solving for epsilon, Initial residual = 0.0147344, Final residual = 8.79017e-06, No Iterations 3
bounding epsilon, min: -0.0240354 max: 789.082 average: 0.542351
smoothSolver:  Solving for k, Initial residual = 0.016951, Final residual = 1.07817e-06, No Iterations 4
ExecutionTime = 0.93 s  ClockTime = 1 s

Time = 0.0026

Courant Number mean: 0.00013255 max: 0.0253476
smoothSolver:  Solving for Ux, Initial residual = 0.0285395, Final residual = 3.62769e-06, No Iterations 3
smoothSolver:  Solving for Uy, Initial residual = 0.0440281, Final residual = 4.3189e-06, No Iterations 3
smoothSolver:  Solving for Uz, Initial residual = 0.0443923, Final residual = 5.46306e-06, No Iterations 3
GAMG:  Solving for p, Initial residual = 0.0436788, Final residual = 0.00211777, No Iterations 1
time step continuity errors : sum local = 1.7095e-07, global = 5.66719e-12, cumulative = 2.20954e-10
GAMG:  Solving for p, Initial residual = 0.00753936, Final residual = 0.000614911, No Iterations 1
time step continuity errors : sum local = 4.95787e-08, global = 7.12528e-12, cumulative = 2.28079e-10
GAMG:  Solving for p, Initial residual = 0.00179125, Final residual = 7.59178e-05, No Iterations 2
time step continuity errors : sum local = 6.12307e-09, global = 2.88449e-12, cumulative = 2.30964e-10
GAMG:  Solving for p, Initial residual = 0.00070958, Final residual = 5.08004e-05, No Iterations 1
time step continuity errors : sum local = 4.09588e-09, global = 2.23092e-12, cumulative = 2.33195e-10
GAMG:  Solving for p, Initial residual = 0.000140318, Final residual = 8.90881e-07, No Iterations 5
time step continuity errors : sum local = 7.18113e-11, global = -7.89652e-13, cumulative = 2.32405e-10
smoothSolver:  Solving for epsilon, Initial residual = 0.013139, Final residual = 6.73235e-06, No Iterations 3
bounding epsilon, min: -0.0863322 max: 811.382 average: 0.626663
smoothSolver:  Solving for k, Initial residual = 0.0147903, Final residual = 9.16658e-06, No Iterations 3
ExecutionTime = 1 s  ClockTime = 1 s

Time = 0.0028

Courant Number mean: 0.000141162 max: 0.0253526
smoothSolver:  Solving for Ux, Initial residual = 0.0249402, Final residual = 2.84599e-06, No Iterations 3
smoothSolver:  Solving for Uy, Initial residual = 0.0373401, Final residual = 3.12127e-06, No Iterations 3
smoothSolver:  Solving for Uz, Initial residual = 0.0380669, Final residual = 4.27742e-06, No Iterations 3
GAMG:  Solving for p, Initial residual = 0.0366159, Final residual = 0.00170873, No Iterations 1
time step continuity errors : sum local = 1.37397e-07, global = 7.1151e-12, cumulative = 2.3952e-10
GAMG:  Solving for p, Initial residual = 0.00621135, Final residual = 0.000486739, No Iterations 1
time step continuity errors : sum local = 3.90415e-08, global = 9.25274e-12, cumulative = 2.48773e-10
GAMG:  Solving for p, Initial residual = 0.00145632, Final residual = 6.5313e-05, No Iterations 2
time step continuity errors : sum local = 5.23972e-09, global = 6.69852e-12, cumulative = 2.55471e-10
GAMG:  Solving for p, Initial residual = 0.000637527, Final residual = 4.43055e-05, No Iterations 1
time step continuity errors : sum local = 3.55323e-09, global = 6.08274e-12, cumulative = 2.61554e-10
GAMG:  Solving for p, Initial residual = 0.000120088, Final residual = 7.50486e-07, No Iterations 5
time step continuity errors : sum local = 6.01718e-11, global = 2.3438e-12, cumulative = 2.63898e-10
smoothSolver:  Solving for epsilon, Initial residual = 0.0118631, Final residual = 5.24507e-06, No Iterations 3
bounding epsilon, min: -0.346469 max: 821.764 average: 0.708242
smoothSolver:  Solving for k, Initial residual = 0.0130771, Final residual = 7.05738e-06, No Iterations 3
ExecutionTime = 1.06 s  ClockTime = 1 s

Time = 0.003

Courant Number mean: 0.000148959 max: 0.0262555
smoothSolver:  Solving for Ux, Initial residual = 0.0221277, Final residual = 2.40427e-06, No Iterations 3
smoothSolver:  Solving for Uy, Initial residual = 0.0325443, Final residual = 2.42087e-06, No Iterations 3
smoothSolver:  Solving for Uz, Initial residual = 0.0330053, Final residual = 3.43458e-06, No Iterations 3
GAMG:  Solving for p, Initial residual = 0.0326806, Final residual = 0.00157488, No Iterations 1
time step continuity errors : sum local = 1.25621e-07, global = 9.41959e-12, cumulative = 2.73317e-10
GAMG:  Solving for p, Initial residual = 0.00552817, Final residual = 0.000475407, No Iterations 1
time step continuity errors : sum local = 3.77059e-08, global = 1.01546e-11, cumulative = 2.83472e-10
GAMG:  Solving for p, Initial residual = 0.00133712, Final residual = 6.95892e-05, No Iterations 2
time step continuity errors : sum local = 5.5189e-09, global = 6.83977e-12, cumulative = 2.90312e-10
GAMG:  Solving for p, Initial residual = 0.000630237, Final residual = 4.57115e-05, No Iterations 1
time step continuity errors : sum local = 3.62384e-09, global = 5.80053e-12, cumulative = 2.96112e-10
GAMG:  Solving for p, Initial residual = 0.000120812, Final residual = 8.04572e-07, No Iterations 5
time step continuity errors : sum local = 6.37649e-11, global = -9.27023e-13, cumulative = 2.95185e-10
smoothSolver:  Solving for epsilon, Initial residual = 0.0108296, Final residual = 4.17363e-06, No Iterations 3
bounding epsilon, min: -0.00460052 max: 822.334 average: 0.786784
smoothSolver:  Solving for k, Initial residual = 0.011691, Final residual = 5.63621e-06, No Iterations 3
ExecutionTime = 1.12 s  ClockTime = 2 s

Time = 0.0032

Courant Number mean: 0.000156073 max: 0.0269384
smoothSolver:  Solving for Ux, Initial residual = 0.0197977, Final residual = 2.10584e-06, No Iterations 3
smoothSolver:  Solving for Uy, Initial residual = 0.0286686, Final residual = 2.05973e-06, No Iterations 3
smoothSolver:  Solving for Uz, Initial residual = 0.0287665, Final residual = 2.82428e-06, No Iterations 3
GAMG:  Solving for p, Initial residual = 0.0285803, Final residual = 0.00140726, No Iterations 1
time step continuity errors : sum local = 1.10808e-07, global = -3.1017e-12, cumulative = 2.92084e-10
GAMG:  Solving for p, Initial residual = 0.0044704, Final residual = 0.000386843, No Iterations 1
time step continuity errors : sum local = 3.02494e-08, global = -3.0262e-12, cumulative = 2.89057e-10
GAMG:  Solving for p, Initial residual = 0.00109023, Final residual = 5.52444e-05, No Iterations 2
time step continuity errors : sum local = 4.31928e-09, global = -4.60144e-12, cumulative = 2.84456e-10
GAMG:  Solving for p, Initial residual = 0.000514182, Final residual = 3.64884e-05, No Iterations 1
time step continuity errors : sum local = 2.85195e-09, global = -4.98457e-12, cumulative = 2.79471e-10
GAMG:  Solving for p, Initial residual = 9.54942e-05, Final residual = 5.8915e-07, No Iterations 5
time step continuity errors : sum local = 4.60371e-11, global = -4.17931e-12, cumulative = 2.75292e-10
smoothSolver:  Solving for epsilon, Initial residual = 0.00995995, Final residual = 3.38766e-06, No Iterations 3
bounding epsilon, min: -0.00471603 max: 815.152 average: 0.862058
smoothSolver:  Solving for k, Initial residual = 0.0105544, Final residual = 4.63452e-06, No Iterations 3
ExecutionTime = 1.19 s  ClockTime = 2 s

Time = 0.0034

Courant Number mean: 0.000162672 max: 0.0274418
smoothSolver:  Solving for Ux, Initial residual = 0.0178892, Final residual = 1.87021e-06, No Iterations 3
smoothSolver:  Solving for Uy, Initial residual = 0.025777, Final residual = 1.79417e-06, No Iterations 3
smoothSolver:  Solving for Uz, Initial residual = 0.0254488, Final residual = 2.39813e-06, No Iterations 3
GAMG:  Solving for p, Initial residual = 0.0269954, Final residual = 0.00129171, No Iterations 1
time step continuity errors : sum local = 1.00092e-07, global = -7.70791e-12, cumulative = 2.67584e-10
GAMG:  Solving for p, Initial residual = 0.00411186, Final residual = 0.000391453, No Iterations 1
time step continuity errors : sum local = 3.00656e-08, global = -7.13692e-12, cumulative = 2.60447e-10
GAMG:  Solving for p, Initial residual = 0.00106141, Final residual = 5.62161e-05, No Iterations 2
time step continuity errors : sum local = 4.31639e-09, global = -6.19328e-12, cumulative = 2.54254e-10
GAMG:  Solving for p, Initial residual = 0.000527415, Final residual = 3.74541e-05, No Iterations 1
time step continuity errors : sum local = 2.87471e-09, global = -5.92212e-12, cumulative = 2.48332e-10
GAMG:  Solving for p, Initial residual = 9.39025e-05, Final residual = 5.49949e-07, No Iterations 5
time step continuity errors : sum local = 4.21992e-11, global = -3.1299e-12, cumulative = 2.45202e-10
smoothSolver:  Solving for epsilon, Initial residual = 0.00921367, Final residual = 2.81169e-06, No Iterations 3
bounding epsilon, min: -0.0453138 max: 801.833 average: 0.934189
smoothSolver:  Solving for k, Initial residual = 0.00960697, Final residual = 3.91455e-06, No Iterations 3
ExecutionTime = 1.25 s  ClockTime = 2 s

Time = 0.0036

Courant Number mean: 0.000168816 max: 0.0277823
smoothSolver:  Solving for Ux, Initial residual = 0.0161729, Final residual = 1.68721e-06, No Iterations 3
smoothSolver:  Solving for Uy, Initial residual = 0.023124, Final residual = 1.64037e-06, No Iterations 3
smoothSolver:  Solving for Uz, Initial residual = 0.0227616, Final residual = 2.08522e-06, No Iterations 3
GAMG:  Solving for p, Initial residual = 0.0248926, Final residual = 0.00121571, No Iterations 1
time step continuity errors : sum local = 9.24989e-08, global = 1.78587e-12, cumulative = 2.46988e-10
GAMG:  Solving for p, Initial residual = 0.00384561, Final residual = 0.000338864, No Iterations 1
time step continuity errors : sum local = 2.55362e-08, global = 1.17644e-12, cumulative = 2.48164e-10
GAMG:  Solving for p, Initial residual = 0.000933152, Final residual = 4.66094e-05, No Iterations 2
time step continuity errors : sum local = 3.51109e-09, global = -5.3053e-13, cumulative = 2.47634e-10
GAMG:  Solving for p, Initial residual = 0.000411907, Final residual = 3.02213e-05, No Iterations 1
time step continuity errors : sum local = 2.27605e-09, global = -9.09254e-13, cumulative = 2.46724e-10
GAMG:  Solving for p, Initial residual = 7.61566e-05, Final residual = 5.09846e-07, No Iterations 5
time step continuity errors : sum local = 3.83914e-11, global = -2.34647e-12, cumulative = 2.44378e-10
smoothSolver:  Solving for epsilon, Initial residual = 0.00856176, Final residual = 2.35571e-06, No Iterations 3
bounding epsilon, min: -0.0323521 max: 783.855 average: 1.00346
smoothSolver:  Solving for k, Initial residual = 0.00881945, Final residual = 3.33214e-06, No Iterations 3
ExecutionTime = 1.31 s  ClockTime = 2 s

Time = 0.0038

Courant Number mean: 0.000174709 max: 0.0280948
smoothSolver:  Solving for Ux, Initial residual = 0.0148465, Final residual = 1.53353e-06, No Iterations 3
smoothSolver:  Solving for Uy, Initial residual = 0.0210417, Final residual = 1.49092e-06, No Iterations 3
smoothSolver:  Solving for Uz, Initial residual = 0.0205693, Final residual = 1.82177e-06, No Iterations 3
GAMG:  Solving for p, Initial residual = 0.0223007, Final residual = 0.00109387, No Iterations 1
time step continuity errors : sum local = 8.16212e-08, global = -9.52374e-13, cumulative = 2.43426e-10
GAMG:  Solving for p, Initial residual = 0.00330271, Final residual = 0.000289295, No Iterations 1
time step continuity errors : sum local = 2.13707e-08, global = -1.79659e-12, cumulative = 2.41629e-10
GAMG:  Solving for p, Initial residual = 0.000824837, Final residual = 4.27914e-05, No Iterations 2
time step continuity errors : sum local = 3.15978e-09, global = -3.69741e-12, cumulative = 2.37932e-10
GAMG:  Solving for p, Initial residual = 0.000396251, Final residual = 2.8058e-05, No Iterations 1
time step continuity errors : sum local = 2.07127e-09, global = -4.0278e-12, cumulative = 2.33904e-10
GAMG:  Solving for p, Initial residual = 6.99674e-05, Final residual = 4.67521e-07, No Iterations 5
time step continuity errors : sum local = 3.45058e-11, global = -3.43985e-12, cumulative = 2.30464e-10
smoothSolver:  Solving for epsilon, Initial residual = 0.00798691, Final residual = 2.01222e-06, No Iterations 3
bounding epsilon, min: -0.0212221 max: 762.46 average: 1.06963
smoothSolver:  Solving for k, Initial residual = 0.00814033, Final residual = 2.88872e-06, No Iterations 3
ExecutionTime = 1.37 s  ClockTime = 2 s

Time = 0.004

Courant Number mean: 0.000180273 max: 0.0283349
smoothSolver:  Solving for Ux, Initial residual = 0.0137105, Final residual = 1.40237e-06, No Iterations 3
smoothSolver:  Solving for Uy, Initial residual = 0.0193312, Final residual = 1.36148e-06, No Iterations 3
smoothSolver:  Solving for Uz, Initial residual = 0.0188103, Final residual = 1.60671e-06, No Iterations 3
GAMG:  Solving for p, Initial residual = 0.0203603, Final residual = 0.000980075, No Iterations 1
time step continuity errors : sum local = 7.17231e-08, global = -3.30016e-12, cumulative = 2.27164e-10
GAMG:  Solving for p, Initial residual = 0.00307392, Final residual = 0.000260982, No Iterations 1
time step continuity errors : sum local = 1.89207e-08, global = -3.6424e-12, cumulative = 2.23521e-10
GAMG:  Solving for p, Initial residual = 0.000741059, Final residual = 3.31118e-05, No Iterations 2
time step continuity errors : sum local = 2.39998e-09, global = -3.72725e-12, cumulative = 2.19794e-10
GAMG:  Solving for p, Initial residual = 0.000312603, Final residual = 2.26802e-05, No Iterations 1
time step continuity errors : sum local = 1.64358e-09, global = -3.57819e-12, cumulative = 2.16216e-10
GAMG:  Solving for p, Initial residual = 5.73173e-05, Final residual = 8.48653e-07, No Iterations 4
time step continuity errors : sum local = 6.14911e-11, global = -2.65123e-12, cumulative = 2.13565e-10
smoothSolver:  Solving for epsilon, Initial residual = 0.00747272, Final residual = 1.74146e-06, No Iterations 3
bounding epsilon, min: -0.0457302 max: 738.658 average: 1.13296
smoothSolver:  Solving for k, Initial residual = 0.00754486, Final residual = 2.52918e-06, No Iterations 3
ExecutionTime = 1.49 s  ClockTime = 2 s

Time = 0.0042

Courant Number mean: 0.000185629 max: 0.0285455
smoothSolver:  Solving for Ux, Initial residual = 0.0127769, Final residual = 1.30076e-06, No Iterations 3
smoothSolver:  Solving for Uy, Initial residual = 0.0180209, Final residual = 1.26438e-06, No Iterations 3
smoothSolver:  Solving for Uz, Initial residual = 0.0173619, Final residual = 1.41468e-06, No Iterations 3
GAMG:  Solving for p, Initial residual = 0.0192454, Final residual = 0.000930735, No Iterations 1
time step continuity errors : sum local = 6.68477e-08, global = -8.43163e-13, cumulative = 2.12722e-10
GAMG:  Solving for p, Initial residual = 0.0029121, Final residual = 0.000263158, No Iterations 1
time step continuity errors : sum local = 1.87144e-08, global = -1.20351e-12, cumulative = 2.11518e-10
GAMG:  Solving for p, Initial residual = 0.000717932, Final residual = 3.52198e-05, No Iterations 2
time step continuity errors : sum local = 2.50382e-09, global = -1.60034e-12, cumulative = 2.09918e-10
GAMG:  Solving for p, Initial residual = 0.000324153, Final residual = 2.37417e-05, No Iterations 1
time step continuity errors : sum local = 1.68748e-09, global = -1.84925e-12, cumulative = 2.08069e-10
GAMG:  Solving for p, Initial residual = 5.88486e-05, Final residual = 8.67339e-07, No Iterations 4
time step continuity errors : sum local = 6.16381e-11, global = -2.54201e-12, cumulative = 2.05526e-10
smoothSolver:  Solving for epsilon, Initial residual = 0.00700903, Final residual = 1.52259e-06, No Iterations 3
bounding epsilon, min: -0.0075453 max: 713.263 average: 1.19357
smoothSolver:  Solving for k, Initial residual = 0.0070233, Final residual = 2.23092e-06, No Iterations 3
ExecutionTime = 1.55 s  ClockTime = 2 s

Time = 0.0044

Courant Number mean: 0.000190762 max: 0.0287413
smoothSolver:  Solving for Ux, Initial residual = 0.0119661, Final residual = 1.22408e-06, No Iterations 3
smoothSolver:  Solving for Uy, Initial residual = 0.016877, Final residual = 1.17769e-06, No Iterations 3
smoothSolver:  Solving for Uz, Initial residual = 0.0161178, Final residual = 1.24911e-06, No Iterations 3
GAMG:  Solving for p, Initial residual = 0.0179464, Final residual = 0.000890636, No Iterations 1
time step continuity errors : sum local = 6.27571e-08, global = -2.06773e-12, cumulative = 2.03459e-10
GAMG:  Solving for p, Initial residual = 0.00270929, Final residual = 0.000249985, No Iterations 1
time step continuity errors : sum local = 1.74453e-08, global = -2.34055e-12, cumulative = 2.01118e-10
GAMG:  Solving for p, Initial residual = 0.000681763, Final residual = 3.05603e-05, No Iterations 2
time step continuity errors : sum local = 2.13196e-09, global = -2.97189e-12, cumulative = 1.98146e-10
GAMG:  Solving for p, Initial residual = 0.000281219, Final residual = 2.03914e-05, No Iterations 1
time step continuity errors : sum local = 1.42229e-09, global = -3.15565e-12, cumulative = 1.94991e-10
GAMG:  Solving for p, Initial residual = 5.12349e-05, Final residual = 7.22844e-07, No Iterations 4
time step continuity errors : sum local = 5.04116e-11, global = -3.04105e-12, cumulative = 1.9195e-10
smoothSolver:  Solving for epsilon, Initial residual = 0.00660405, Final residual = 1.3442e-06, No Iterations 3
bounding epsilon, min: -2.30695e-05 max: 686.925 average: 1.25154
smoothSolver:  Solving for k, Initial residual = 0.00656541, Final residual = 1.98188e-06, No Iterations 3
ExecutionTime = 1.61 s  ClockTime = 2 s

Time = 0.0046

Courant Number mean: 0.000195726 max: 0.0289148
smoothSolver:  Solving for Ux, Initial residual = 0.0112461, Final residual = 1.14894e-06, No Iterations 3
smoothSolver:  Solving for Uy, Initial residual = 0.0158687, Final residual = 1.08891e-06, No Iterations 3
smoothSolver:  Solving for Uz, Initial residual = 0.0150816, Final residual = 1.09793e-06, No Iterations 3
GAMG:  Solving for p, Initial residual = 0.0170561, Final residual = 0.000806651, No Iterations 1
time step continuity errors : sum local = 5.57781e-08, global = -4.20037e-12, cumulative = 1.87749e-10
GAMG:  Solving for p, Initial residual = 0.00259996, Final residual = 0.000223866, No Iterations 1
time step continuity errors : sum local = 1.53297e-08, global = -5.00331e-12, cumulative = 1.82746e-10
GAMG:  Solving for p, Initial residual = 0.000626706, Final residual = 2.57684e-05, No Iterations 2
time step continuity errors : sum local = 1.76399e-09, global = -5.0399e-12, cumulative = 1.77706e-10
GAMG:  Solving for p, Initial residual = 0.000240841, Final residual = 1.734e-05, No Iterations 1
time step continuity errors : sum local = 1.18685e-09, global = -5.02844e-12, cumulative = 1.72678e-10
GAMG:  Solving for p, Initial residual = 4.40575e-05, Final residual = 6.47835e-07, No Iterations 4
time step continuity errors : sum local = 4.43372e-11, global = -3.73075e-12, cumulative = 1.68947e-10
smoothSolver:  Solving for epsilon, Initial residual = 0.00624218, Final residual = 1.19575e-06, No Iterations 3
bounding epsilon, min: -0.00204057 max: 673.065 average: 1.30699
smoothSolver:  Solving for k, Initial residual = 0.00615659, Final residual = 1.76935e-06, No Iterations 3
ExecutionTime = 1.68 s  ClockTime = 2 s

Time = 0.0048

Courant Number mean: 0.000200501 max: 0.0290805
smoothSolver:  Solving for Ux, Initial residual = 0.0106359, Final residual = 1.08983e-06, No Iterations 3
smoothSolver:  Solving for Uy, Initial residual = 0.015026, Final residual = 1.00855e-06, No Iterations 3
smoothSolver:  Solving for Uz, Initial residual = 0.0142045, Final residual = 9.81096e-07, No Iterations 3
GAMG:  Solving for p, Initial residual = 0.015853, Final residual = 0.000752322, No Iterations 1
time step continuity errors : sum local = 5.1074e-08, global = -6.31442e-12, cumulative = 1.62632e-10
GAMG:  Solving for p, Initial residual = 0.00238959, Final residual = 0.000209682, No Iterations 1
time step continuity errors : sum local = 1.41027e-08, global = -6.39111e-12, cumulative = 1.56241e-10
GAMG:  Solving for p, Initial residual = 0.000586237, Final residual = 2.42682e-05, No Iterations 2
time step continuity errors : sum local = 1.63175e-09, global = -5.51736e-12, cumulative = 1.50724e-10
GAMG:  Solving for p, Initial residual = 0.000221777, Final residual = 1.62337e-05, No Iterations 1
time step continuity errors : sum local = 1.09138e-09, global = -5.62171e-12, cumulative = 1.45102e-10
GAMG:  Solving for p, Initial residual = 4.09145e-05, Final residual = 6.10007e-07, No Iterations 4
time step continuity errors : sum local = 4.1006e-11, global = -3.96598e-12, cumulative = 1.41136e-10
smoothSolver:  Solving for epsilon, Initial residual = 0.00590666, Final residual = 1.07063e-06, No Iterations 3
smoothSolver:  Solving for k, Initial residual = 0.00579202, Final residual = 1.58605e-06, No Iterations 3
ExecutionTime = 1.74 s  ClockTime = 2 s

Time = 0.005

Courant Number mean: 0.000205142 max: 0.0292405
smoothSolver:  Solving for Ux, Initial residual = 0.010072, Final residual = 1.03337e-06, No Iterations 3
smoothSolver:  Solving for Uy, Initial residual = 0.0142738, Final residual = 9.38422e-07, No Iterations 3
smoothSolver:  Solving for Uz, Initial residual = 0.0134397, Final residual = 8.70865e-07, No Iterations 3
GAMG:  Solving for p, Initial residual = 0.015243, Final residual = 0.000705041, No Iterations 1
time step continuity errors : sum local = 4.70219e-08, global = -5.43456e-12, cumulative = 1.35702e-10
GAMG:  Solving for p, Initial residual = 0.00231969, Final residual = 0.000191773, No Iterations 1
time step continuity errors : sum local = 1.26735e-08, global = -5.28404e-12, cumulative = 1.30418e-10
GAMG:  Solving for p, Initial residual = 0.000540479, Final residual = 2.45911e-05, No Iterations 2
time step continuity errors : sum local = 1.62463e-09, global = -4.82194e-12, cumulative = 1.25596e-10
GAMG:  Solving for p, Initial residual = 0.000229636, Final residual = 1.66085e-05, No Iterations 1
time step continuity errors : sum local = 1.09711e-09, global = -4.74897e-12, cumulative = 1.20847e-10
GAMG:  Solving for p, Initial residual = 4.15462e-05, Final residual = 6.13864e-07, No Iterations 4
time step continuity errors : sum local = 4.05459e-11, global = -3.09799e-12, cumulative = 1.17749e-10
smoothSolver:  Solving for epsilon, Initial residual = 0.00559406, Final residual = 9.64106e-07, No Iterations 3
bounding epsilon, min: -0.0513595 max: 657.951 average: 1.41078
smoothSolver:  Solving for k, Initial residual = 0.00546045, Final residual = 1.42611e-06, No Iterations 3
ExecutionTime = 1.8 s  ClockTime = 2 s

Time = 0.0052

Courant Number mean: 0.000209649 max: 0.0293928
smoothSolver:  Solving for Ux, Initial residual = 0.00965963, Final residual = 9.85602e-07, No Iterations 3
smoothSolver:  Solving for Uy, Initial residual = 0.013719, Final residual = 8.72658e-07, No Iterations 3
smoothSolver:  Solving for Uz, Initial residual = 0.0128127, Final residual = 7.76114e-07, No Iterations 3
GAMG:  Solving for p, Initial residual = 0.015039, Final residual = 0.000725228, No Iterations 1
time step continuity errors : sum local = 4.75704e-08, global = -3.62743e-12, cumulative = 1.14121e-10
GAMG:  Solving for p, Initial residual = 0.00235188, Final residual = 0.000192154, No Iterations 1
time step continuity errors : sum local = 1.25013e-08, global = -3.99537e-12, cumulative = 1.10126e-10
GAMG:  Solving for p, Initial residual = 0.000531132, Final residual = 2.25512e-05, No Iterations 2
time step continuity errors : sum local = 1.4668e-09, global = -4.26244e-12, cumulative = 1.05864e-10
GAMG:  Solving for p, Initial residual = 0.000204859, Final residual = 1.47079e-05, No Iterations 1
time step continuity errors : sum local = 9.56571e-10, global = -4.26158e-12, cumulative = 1.01602e-10
GAMG:  Solving for p, Initial residual = 3.7565e-05, Final residual = 5.6596e-07, No Iterations 4
time step continuity errors : sum local = 3.68061e-11, global = -2.87195e-12, cumulative = 9.873e-11
smoothSolver:  Solving for epsilon, Initial residual = 0.00530269, Final residual = 8.72765e-07, No Iterations 3
bounding epsilon, min: -0.00754722 max: 648.003 average: 1.45919
smoothSolver:  Solving for k, Initial residual = 0.00515725, Final residual = 1.28686e-06, No Iterations 3
ExecutionTime = 1.87 s  ClockTime = 2 s

Time = 0.0054

Courant Number mean: 0.00021403 max: 0.0295354
smoothSolver:  Solving for Ux, Initial residual = 0.00917146, Final residual = 9.38227e-07, No Iterations 3
smoothSolver:  Solving for Uy, Initial residual = 0.0130138, Final residual = 8.15246e-07, No Iterations 3
smoothSolver:  Solving for Uz, Initial residual = 0.0122024, Final residual = 6.94489e-07, No Iterations 3
GAMG:  Solving for p, Initial residual = 0.0139436, Final residual = 0.000674329, No Iterations 1
time step continuity errors : sum local = 4.35188e-08, global = -2.57121e-12, cumulative = 9.61588e-11
GAMG:  Solving for p, Initial residual = 0.0022403, Final residual = 0.000177098, No Iterations 1
time step continuity errors : sum local = 1.13266e-08, global = -2.27962e-12, cumulative = 9.38792e-11
GAMG:  Solving for p, Initial residual = 0.000504747, Final residual = 1.84186e-05, No Iterations 2
time step continuity errors : sum local = 1.17766e-09, global = -1.79781e-12, cumulative = 9.20814e-11
GAMG:  Solving for p, Initial residual = 0.000172008, Final residual = 1.29056e-05, No Iterations 1
time step continuity errors : sum local = 8.25105e-10, global = -1.65737e-12, cumulative = 9.0424e-11
GAMG:  Solving for p, Initial residual = 3.21777e-05, Final residual = 4.46162e-07, No Iterations 4
time step continuity errors : sum local = 2.8523e-11, global = -1.11974e-12, cumulative = 8.93043e-11
smoothSolver:  Solving for epsilon, Initial residual = 0.005035, Final residual = 7.92795e-07, No Iterations 3
bounding epsilon, min: -0.00416144 max: 636.87 average: 1.50543
smoothSolver:  Solving for k, Initial residual = 0.00488012, Final residual = 1.16359e-06, No Iterations 3
ExecutionTime = 1.92 s  ClockTime = 2 s

Time = 0.0056

Courant Number mean: 0.000218364 max: 0.029668
smoothSolver:  Solving for Ux, Initial residual = 0.00879604, Final residual = 8.98278e-07, No Iterations 3
smoothSolver:  Solving for Uy, Initial residual = 0.0124123, Final residual = 7.57594e-07, No Iterations 3
smoothSolver:  Solving for Uz, Initial residual = 0.011692, Final residual = 6.25473e-07, No Iterations 3
GAMG:  Solving for p, Initial residual = 0.0129497, Final residual = 0.00062844, No Iterations 1
time step continuity errors : sum local = 3.98833e-08, global = -1.5893e-12, cumulative = 8.7715e-11
GAMG:  Solving for p, Initial residual = 0.00199622, Final residual = 0.000166964, No Iterations 1
time step continuity errors : sum local = 1.05047e-08, global = -1.35508e-12, cumulative = 8.63599e-11
GAMG:  Solving for p, Initial residual = 0.000470094, Final residual = 1.80613e-05, No Iterations 2
time step continuity errors : sum local = 1.13607e-09, global = -1.51256e-12, cumulative = 8.48473e-11
GAMG:  Solving for p, Initial residual = 0.00016419, Final residual = 1.21074e-05, No Iterations 1
time step continuity errors : sum local = 7.61511e-10, global = -1.50286e-12, cumulative = 8.33445e-11
GAMG:  Solving for p, Initial residual = 3.03149e-05, Final residual = 4.78707e-07, No Iterations 4
time step continuity errors : sum local = 3.0107e-11, global = -1.76112e-12, cumulative = 8.15834e-11
smoothSolver:  Solving for epsilon, Initial residual = 0.00479914, Final residual = 7.22727e-07, No Iterations 3
smoothSolver:  Solving for k, Initial residual = 0.00462626, Final residual = 1.05479e-06, No Iterations 3
ExecutionTime = 1.98 s  ClockTime = 2 s

Time = 0.0058

Courant Number mean: 0.000222644 max: 0.0297909
smoothSolver:  Solving for Ux, Initial residual = 0.00844931, Final residual = 8.55258e-07, No Iterations 3
smoothSolver:  Solving for Uy, Initial residual = 0.01186, Final residual = 7.05894e-07, No Iterations 3
smoothSolver:  Solving for Uz, Initial residual = 0.0112598, Final residual = 5.74589e-07, No Iterations 3
GAMG:  Solving for p, Initial residual = 0.0126617, Final residual = 0.000588402, No Iterations 1
time step continuity errors : sum local = 3.67387e-08, global = -4.03602e-12, cumulative = 7.75473e-11
GAMG:  Solving for p, Initial residual = 0.00194937, Final residual = 0.000164253, No Iterations 1
time step continuity errors : sum local = 1.01672e-08, global = -3.88128e-12, cumulative = 7.36661e-11
GAMG:  Solving for p, Initial residual = 0.000448539, Final residual = 1.7053e-05, No Iterations 2
time step continuity errors : sum local = 1.05526e-09, global = -3.3475e-12, cumulative = 7.03186e-11
GAMG:  Solving for p, Initial residual = 0.000159743, Final residual = 1.17001e-05, No Iterations 1
time step continuity errors : sum local = 7.23963e-10, global = -3.33403e-12, cumulative = 6.69845e-11
GAMG:  Solving for p, Initial residual = 2.93229e-05, Final residual = 9.9167e-07, No Iterations 3
time step continuity errors : sum local = 6.1358e-11, global = -2.45717e-12, cumulative = 6.45274e-11
smoothSolver:  Solving for epsilon, Initial residual = 0.00457723, Final residual = 6.60835e-07, No Iterations 3
bounding epsilon, min: -0.00425067 max: 612.04 average: 1.59158
smoothSolver:  Solving for k, Initial residual = 0.00439324, Final residual = 9.57927e-07, No Iterations 3
ExecutionTime = 2.05 s  ClockTime = 2 s

Time = 0.006

Courant Number mean: 0.000226821 max: 0.0299057
smoothSolver:  Solving for Ux, Initial residual = 0.00813303, Final residual = 8.16674e-07, No Iterations 3
smoothSolver:  Solving for Uy, Initial residual = 0.011437, Final residual = 6.651e-07, No Iterations 3
smoothSolver:  Solving for Uz, Initial residual = 0.010836, Final residual = 5.29018e-07, No Iterations 3
GAMG:  Solving for p, Initial residual = 0.0118407, Final residual = 0.000535842, No Iterations 1
time step continuity errors : sum local = 3.29278e-08, global = -4.52016e-12, cumulative = 6.00072e-11
GAMG:  Solving for p, Initial residual = 0.00183069, Final residual = 0.000147221, No Iterations 1
time step continuity errors : sum local = 8.97226e-09, global = -4.49735e-12, cumulative = 5.55098e-11
GAMG:  Solving for p, Initial residual = 0.00041864, Final residual = 1.64624e-05, No Iterations 2
time step continuity errors : sum local = 1.00298e-09, global = -4.18679e-12, cumulative = 5.13231e-11
GAMG:  Solving for p, Initial residual = 0.000153792, Final residual = 1.10027e-05, No Iterations 1
time step continuity errors : sum local = 6.70296e-10, global = -4.11005e-12, cumulative = 4.7213e-11
GAMG:  Solving for p, Initial residual = 2.84995e-05, Final residual = 9.45252e-07, No Iterations 3
time step continuity errors : sum local = 5.75821e-11, global = -3.10556e-12, cumulative = 4.41075e-11
smoothSolver:  Solving for epsilon, Initial residual = 0.00437012, Final residual = 6.05747e-07, No Iterations 3
bounding epsilon, min: -0.00157636 max: 598.769 average: 1.63164
smoothSolver:  Solving for k, Initial residual = 0.00417915, Final residual = 8.7096e-07, No Iterations 3
ExecutionTime = 2.17 s  ClockTime = 3 s

Time = 0.0062

Courant Number mean: 0.000230927 max: 0.0300155
smoothSolver:  Solving for Ux, Initial residual = 0.00784405, Final residual = 7.8061e-07, No Iterations 3
smoothSolver:  Solving for Uy, Initial residual = 0.011018, Final residual = 6.20729e-07, No Iterations 3
smoothSolver:  Solving for Uz, Initial residual = 0.0104455, Final residual = 4.87105e-07, No Iterations 3
GAMG:  Solving for p, Initial residual = 0.0116241, Final residual = 0.000556099, No Iterations 1
time step continuity errors : sum local = 3.36394e-08, global = -4.91355e-12, cumulative = 3.91939e-11
GAMG:  Solving for p, Initial residual = 0.00176676, Final residual = 0.000148557, No Iterations 1
time step continuity errors : sum local = 8.91133e-09, global = -5.312e-12, cumulative = 3.38819e-11
GAMG:  Solving for p, Initial residual = 0.000407052, Final residual = 1.47905e-05, No Iterations 2
time step continuity errors : sum local = 8.86997e-10, global = -5.49267e-12, cumulative = 2.83892e-11
GAMG:  Solving for p, Initial residual = 0.000137017, Final residual = 9.92813e-06, No Iterations 1
time step continuity errors : sum local = 5.95365e-10, global = -5.22798e-12, cumulative = 2.31613e-11
GAMG:  Solving for p, Initial residual = 2.53791e-05, Final residual = 8.74687e-07, No Iterations 3
time step continuity errors : sum local = 5.24503e-11, global = -4.1364e-12, cumulative = 1.90249e-11
smoothSolver:  Solving for epsilon, Initial residual = 0.00418042, Final residual = 5.56311e-07, No Iterations 3
smoothSolver:  Solving for k, Initial residual = 0.00398037, Final residual = 7.92627e-07, No Iterations 3
ExecutionTime = 2.23 s  ClockTime = 3 s

Time = 0.0064

Courant Number mean: 0.000234965 max: 0.0301145
smoothSolver:  Solving for Ux, Initial residual = 0.00757093, Final residual = 7.45912e-07, No Iterations 3
smoothSolver:  Solving for Uy, Initial residual = 0.0106107, Final residual = 5.79269e-07, No Iterations 3
smoothSolver:  Solving for Uz, Initial residual = 0.0100807, Final residual = 9.81825e-06, No Iterations 2
GAMG:  Solving for p, Initial residual = 0.0114386, Final residual = 0.00052628, No Iterations 1
time step continuity errors : sum local = 3.13391e-08, global = -6.54253e-12, cumulative = 1.24823e-11
GAMG:  Solving for p, Initial residual = 0.00173229, Final residual = 0.000141791, No Iterations 1
time step continuity errors : sum local = 8.37304e-09, global = -6.80874e-12, cumulative = 5.67358e-12
GAMG:  Solving for p, Initial residual = 0.000382117, Final residual = 1.42916e-05, No Iterations 2
time step continuity errors : sum local = 8.43715e-10, global = -6.71757e-12, cumulative = -1.04398e-12
GAMG:  Solving for p, Initial residual = 0.000125721, Final residual = 8.84894e-06, No Iterations 1
time step continuity errors : sum local = 5.22386e-10, global = -6.63098e-12, cumulative = -7.67497e-12
GAMG:  Solving for p, Initial residual = 2.25351e-05, Final residual = 7.75586e-07, No Iterations 3
time step continuity errors : sum local = 4.57842e-11, global = -4.75973e-12, cumulative = -1.24347e-11
smoothSolver:  Solving for epsilon, Initial residual = 0.00400302, Final residual = 5.12016e-07, No Iterations 3
bounding epsilon, min: -0.00465825 max: 571.355 average: 1.70607
smoothSolver:  Solving for k, Initial residual = 0.00379485, Final residual = 7.22546e-07, No Iterations 3
ExecutionTime = 2.28 s  ClockTime = 3 s

Time = 0.0066

Courant Number mean: 0.000238942 max: 0.0302108
smoothSolver:  Solving for Ux, Initial residual = 0.00733556, Final residual = 7.11075e-07, No Iterations 3
smoothSolver:  Solving for Uy, Initial residual = 0.0102421, Final residual = 5.34234e-07, No Iterations 3
smoothSolver:  Solving for Uz, Initial residual = 0.00975094, Final residual = 9.20242e-06, No Iterations 2
GAMG:  Solving for p, Initial residual = 0.0106966, Final residual = 0.000503018, No Iterations 1
time step continuity errors : sum local = 2.94981e-08, global = -6.61897e-12, cumulative = -1.90537e-11
GAMG:  Solving for p, Initial residual = 0.0016364, Final residual = 0.000140767, No Iterations 1
time step continuity errors : sum local = 8.18921e-09, global = -6.53016e-12, cumulative = -2.55838e-11
GAMG:  Solving for p, Initial residual = 0.000373364, Final residual = 1.53218e-05, No Iterations 2
time step continuity errors : sum local = 8.91123e-10, global = -5.51611e-12, cumulative = -3.10999e-11
GAMG:  Solving for p, Initial residual = 0.000137917, Final residual = 9.97126e-06, No Iterations 1
time step continuity errors : sum local = 5.79896e-10, global = -5.40016e-12, cumulative = -3.65001e-11
GAMG:  Solving for p, Initial residual = 2.56678e-05, Final residual = 8.90425e-07, No Iterations 3
time step continuity errors : sum local = 5.17817e-11, global = -3.68409e-12, cumulative = -4.01842e-11
smoothSolver:  Solving for epsilon, Initial residual = 0.00383656, Final residual = 4.71891e-07, No Iterations 3
bounding epsilon, min: -0.000122795 max: 575.598 average: 1.74059
smoothSolver:  Solving for k, Initial residual = 0.00362099, Final residual = 6.59235e-07, No Iterations 3
ExecutionTime = 2.34 s  ClockTime = 3 s

Time = 0.0068

Courant Number mean: 0.000242885 max: 0.0302958
smoothSolver:  Solving for Ux, Initial residual = 0.00710092, Final residual = 6.79234e-07, No Iterations 3
smoothSolver:  Solving for Uy, Initial residual = 0.00992924, Final residual = 4.98846e-07, No Iterations 3
smoothSolver:  Solving for Uz, Initial residual = 0.00943426, Final residual = 8.61346e-06, No Iterations 2
GAMG:  Solving for p, Initial residual = 0.0104775, Final residual = 0.000482188, No Iterations 1
time step continuity errors : sum local = 2.7857e-08, global = -3.46505e-12, cumulative = -4.36492e-11
GAMG:  Solving for p, Initial residual = 0.00163826, Final residual = 0.000129612, No Iterations 1
time step continuity errors : sum local = 7.42898e-09, global = -3.68191e-12, cumulative = -4.73312e-11
GAMG:  Solving for p, Initial residual = 0.000358562, Final residual = 1.55282e-05, No Iterations 2
time step continuity errors : sum local = 8.89802e-10, global = -3.48815e-12, cumulative = -5.08193e-11
GAMG:  Solving for p, Initial residual = 0.000140688, Final residual = 1.01399e-05, No Iterations 1
time step continuity errors : sum local = 5.80996e-10, global = -3.44332e-12, cumulative = -5.42626e-11
GAMG:  Solving for p, Initial residual = 2.61582e-05, Final residual = 9.97296e-07, No Iterations 3
time step continuity errors : sum local = 5.71399e-11, global = -2.38179e-12, cumulative = -5.66444e-11
smoothSolver:  Solving for epsilon, Initial residual = 0.00367885, Final residual = 4.35929e-07, No Iterations 3
bounding epsilon, min: -0.00125826 max: 581.308 average: 1.77337
smoothSolver:  Solving for k, Initial residual = 0.00345808, Final residual = 6.01933e-07, No Iterations 3
ExecutionTime = 2.4 s  ClockTime = 3 s

Time = 0.007

Courant Number mean: 0.000246786 max: 0.0303738
smoothSolver:  Solving for Ux, Initial residual = 0.00688762, Final residual = 6.485e-07, No Iterations 3
smoothSolver:  Solving for Uy, Initial residual = 0.00964054, Final residual = 4.63602e-07, No Iterations 3
smoothSolver:  Solving for Uz, Initial residual = 0.00911967, Final residual = 8.0754e-06, No Iterations 2
GAMG:  Solving for p, Initial residual = 0.00987744, Final residual = 0.000454739, No Iterations 1
time step continuity errors : sum local = 2.58926e-08, global = -1.71362e-12, cumulative = -5.8358e-11
GAMG:  Solving for p, Initial residual = 0.00149636, Final residual = 0.0001246, No Iterations 1
time step continuity errors : sum local = 7.04124e-09, global = -1.62484e-12, cumulative = -5.99829e-11
GAMG:  Solving for p, Initial residual = 0.00034323, Final residual = 1.29276e-05, No Iterations 2
time step continuity errors : sum local = 7.30378e-10, global = -1.31719e-12, cumulative = -6.13e-11
GAMG:  Solving for p, Initial residual = 0.000117371, Final residual = 8.72023e-06, No Iterations 1
time step continuity errors : sum local = 4.92648e-10, global = -1.29846e-12, cumulative = -6.25985e-11
GAMG:  Solving for p, Initial residual = 2.21534e-05, Final residual = 7.70435e-07, No Iterations 3
time step continuity errors : sum local = 4.35237e-11, global = -1.22528e-12, cumulative = -6.38238e-11
smoothSolver:  Solving for epsilon, Initial residual = 0.00353438, Final residual = 4.02601e-07, No Iterations 3
smoothSolver:  Solving for k, Initial residual = 0.00330475, Final residual = 5.49979e-07, No Iterations 3
ExecutionTime = 2.46 s  ClockTime = 3 s

Time = 0.0072

Courant Number mean: 0.000250672 max: 0.0304395
smoothSolver:  Solving for Ux, Initial residual = 0.00669266, Final residual = 6.18829e-07, No Iterations 3
smoothSolver:  Solving for Uy, Initial residual = 0.00939963, Final residual = 4.36628e-07, No Iterations 3
smoothSolver:  Solving for Uz, Initial residual = 0.00888076, Final residual = 7.60643e-06, No Iterations 2
GAMG:  Solving for p, Initial residual = 0.0102605, Final residual = 0.000506223, No Iterations 1
time step continuity errors : sum local = 2.84293e-08, global = -1.77699e-12, cumulative = -6.56008e-11
GAMG:  Solving for p, Initial residual = 0.00161528, Final residual = 0.000133423, No Iterations 1
time step continuity errors : sum local = 7.43895e-09, global = -1.8913e-12, cumulative = -6.74921e-11
GAMG:  Solving for p, Initial residual = 0.000361172, Final residual = 1.26618e-05, No Iterations 2
time step continuity errors : sum local = 7.0576e-10, global = -1.83138e-12, cumulative = -6.93235e-11
GAMG:  Solving for p, Initial residual = 0.000109351, Final residual = 7.47083e-06, No Iterations 1
time step continuity errors : sum local = 4.16403e-10, global = -1.81275e-12, cumulative = -7.11362e-11
GAMG:  Solving for p, Initial residual = 2.01864e-05, Final residual = 6.96075e-07, No Iterations 3
time step continuity errors : sum local = 3.8796e-11, global = -1.35791e-12, cumulative = -7.24941e-11
smoothSolver:  Solving for epsilon, Initial residual = 0.00340129, Final residual = 9.50668e-06, No Iterations 2
bounding epsilon, min: -0.0803255 max: 589.494 average: 1.83392
smoothSolver:  Solving for k, Initial residual = 0.00316307, Final residual = 5.03006e-07, No Iterations 3
ExecutionTime = 2.52 s  ClockTime = 3 s

Time = 0.0074

Courant Number mean: 0.000254528 max: 0.0305011
smoothSolver:  Solving for Ux, Initial residual = 0.00649663, Final residual = 5.90288e-07, No Iterations 3
smoothSolver:  Solving for Uy, Initial residual = 0.00913176, Final residual = 9.88192e-06, No Iterations 2
smoothSolver:  Solving for Uz, Initial residual = 0.00862136, Final residual = 7.14107e-06, No Iterations 2
GAMG:  Solving for p, Initial residual = 0.0100912, Final residual = 0.000510027, No Iterations 1
time step continuity errors : sum local = 2.82444e-08, global = -2.11315e-12, cumulative = -7.46073e-11
GAMG:  Solving for p, Initial residual = 0.00158284, Final residual = 0.000130613, No Iterations 1
time step continuity errors : sum local = 7.17721e-09, global = -2.58639e-12, cumulative = -7.71936e-11
GAMG:  Solving for p, Initial residual = 0.000355579, Final residual = 1.21452e-05, No Iterations 2
time step continuity errors : sum local = 6.67238e-10, global = -2.78834e-12, cumulative = -7.9982e-11
GAMG:  Solving for p, Initial residual = 0.000100862, Final residual = 7.23577e-06, No Iterations 1
time step continuity errors : sum local = 3.97519e-10, global = -2.71548e-12, cumulative = -8.26975e-11
GAMG:  Solving for p, Initial residual = 1.86501e-05, Final residual = 6.42026e-07, No Iterations 3
time step continuity errors : sum local = 3.5271e-11, global = -2.41008e-12, cumulative = -8.51075e-11
smoothSolver:  Solving for epsilon, Initial residual = 0.00327816, Final residual = 8.9036e-06, No Iterations 2
bounding epsilon, min: -0.00555368 max: 592.097 average: 1.86181
smoothSolver:  Solving for k, Initial residual = 0.00303013, Final residual = 9.539e-06, No Iterations 2
ExecutionTime = 2.58 s  ClockTime = 3 s

Time = 0.0076

Courant Number mean: 0.000258341 max: 0.0305664
smoothSolver:  Solving for Ux, Initial residual = 0.00642332, Final residual = 6.42854e-07, No Iterations 3
smoothSolver:  Solving for Uy, Initial residual = 0.00910137, Final residual = 6.49959e-07, No Iterations 3
smoothSolver:  Solving for Uz, Initial residual = 0.00849177, Final residual = 9.18466e-06, No Iterations 2
GAMG:  Solving for p, Initial residual = 0.0103609, Final residual = 0.000577633, No Iterations 1
time step continuity errors : sum local = 3.15573e-08, global = -4.49743e-12, cumulative = -8.9605e-11
GAMG:  Solving for p, Initial residual = 0.00179329, Final residual = 0.000172339, No Iterations 1
time step continuity errors : sum local = 9.35184e-09, global = -5.65953e-12, cumulative = -9.52645e-11
GAMG:  Solving for p, Initial residual = 0.000415133, Final residual = 1.88565e-05, No Iterations 2
time step continuity errors : sum local = 1.02316e-09, global = -6.18795e-12, cumulative = -1.01452e-10
GAMG:  Solving for p, Initial residual = 0.00014952, Final residual = 1.13634e-05, No Iterations 1
time step continuity errors : sum local = 6.16617e-10, global = -6.26127e-12, cumulative = -1.07714e-10
GAMG:  Solving for p, Initial residual = 2.78434e-05, Final residual = 9.17591e-07, No Iterations 3
time step continuity errors : sum local = 4.97929e-11, global = -4.68335e-12, cumulative = -1.12397e-10
smoothSolver:  Solving for epsilon, Initial residual = 0.00316701, Final residual = 8.34399e-06, No Iterations 2
bounding epsilon, min: -0.0648775 max: 593.791 average: 1.88822
smoothSolver:  Solving for k, Initial residual = 0.00290809, Final residual = 9.22104e-06, No Iterations 2
ExecutionTime = 2.64 s  ClockTime = 3 s

Time = 0.0078

Courant Number mean: 0.000262096 max: 0.0306211
smoothSolver:  Solving for Ux, Initial residual = 0.00622044, Final residual = 5.37547e-07, No Iterations 3
smoothSolver:  Solving for Uy, Initial residual = 0.00876878, Final residual = 8.86199e-06, No Iterations 2
smoothSolver:  Solving for Uz, Initial residual = 0.0082583, Final residual = 6.32403e-06, No Iterations 2
GAMG:  Solving for p, Initial residual = 0.0103583, Final residual = 0.000558786, No Iterations 1
time step continuity errors : sum local = 3.01267e-08, global = -7.77539e-12, cumulative = -1.20172e-10
GAMG:  Solving for p, Initial residual = 0.00168176, Final residual = 0.000153296, No Iterations 1
time step continuity errors : sum local = 8.1984e-09, global = -7.17694e-12, cumulative = -1.27349e-10
GAMG:  Solving for p, Initial residual = 0.000392047, Final residual = 1.79611e-05, No Iterations 2
time step continuity errors : sum local = 9.60263e-10, global = -6.79816e-12, cumulative = -1.34148e-10
GAMG:  Solving for p, Initial residual = 0.000150733, Final residual = 1.16014e-05, No Iterations 1
time step continuity errors : sum local = 6.20206e-10, global = -6.68769e-12, cumulative = -1.40835e-10
GAMG:  Solving for p, Initial residual = 2.81732e-05, Final residual = 9.66775e-07, No Iterations 3
time step continuity errors : sum local = 5.1681e-11, global = -4.74129e-12, cumulative = -1.45577e-10
smoothSolver:  Solving for epsilon, Initial residual = 0.00305412, Final residual = 7.82653e-06, No Iterations 2
bounding epsilon, min: -0.000979185 max: 594.655 average: 1.91325
smoothSolver:  Solving for k, Initial residual = 0.00278756, Final residual = 8.25754e-06, No Iterations 2
ExecutionTime = 2.69 s  ClockTime = 3 s

Time = 0.008

Courant Number mean: 0.000265864 max: 0.030681
smoothSolver:  Solving for Ux, Initial residual = 0.00604105, Final residual = 5.16595e-07, No Iterations 3
smoothSolver:  Solving for Uy, Initial residual = 0.00840895, Final residual = 8.45682e-06, No Iterations 2
smoothSolver:  Solving for Uz, Initial residual = 0.00797672, Final residual = 5.92848e-06, No Iterations 2
GAMG:  Solving for p, Initial residual = 0.00926317, Final residual = 0.000432277, No Iterations 1
time step continuity errors : sum local = 2.29722e-08, global = -5.55025e-12, cumulative = -1.51127e-10
GAMG:  Solving for p, Initial residual = 0.00137816, Final residual = 0.00011639, No Iterations 1
time step continuity errors : sum local = 6.141e-09, global = -5.73253e-12, cumulative = -1.56859e-10
GAMG:  Solving for p, Initial residual = 0.000302054, Final residual = 1.07498e-05, No Iterations 2
time step continuity errors : sum local = 5.67043e-10, global = -5.25675e-12, cumulative = -1.62116e-10
GAMG:  Solving for p, Initial residual = 9.07154e-05, Final residual = 6.32513e-06, No Iterations 1
time step continuity errors : sum local = 3.33638e-10, global = -5.11065e-12, cumulative = -1.67227e-10
GAMG:  Solving for p, Initial residual = 1.64525e-05, Final residual = 5.288e-07, No Iterations 3
time step continuity errors : sum local = 2.78926e-11, global = -3.35192e-12, cumulative = -1.70579e-10
smoothSolver:  Solving for epsilon, Initial residual = 0.0029499, Final residual = 7.35132e-06, No Iterations 2
bounding epsilon, min: -0.000357615 max: 594.75 average: 1.93688
smoothSolver:  Solving for k, Initial residual = 0.00267739, Final residual = 7.68892e-06, No Iterations 2
ExecutionTime = 2.81 s  ClockTime = 3 s

Time = 0.0082

Courant Number mean: 0.000269604 max: 0.0307323
smoothSolver:  Solving for Ux, Initial residual = 0.00590026, Final residual = 4.93627e-07, No Iterations 3
smoothSolver:  Solving for Uy, Initial residual = 0.00822686, Final residual = 8.08105e-06, No Iterations 2
smoothSolver:  Solving for Uz, Initial residual = 0.00778781, Final residual = 5.596e-06, No Iterations 2
GAMG:  Solving for p, Initial residual = 0.00908193, Final residual = 0.000421352, No Iterations 1
time step continuity errors : sum local = 2.2096e-08, global = -2.90277e-12, cumulative = -1.73481e-10
GAMG:  Solving for p, Initial residual = 0.00133958, Final residual = 0.000105841, No Iterations 1
time step continuity errors : sum local = 5.51148e-09, global = -3.10098e-12, cumulative = -1.76582e-10
GAMG:  Solving for p, Initial residual = 0.000295766, Final residual = 2.90629e-05, No Iterations 1
time step continuity errors : sum local = 1.51307e-09, global = -2.98305e-12, cumulative = -1.79565e-10
GAMG:  Solving for p, Initial residual = 7.7436e-05, Final residual = 4.28125e-06, No Iterations 2
time step continuity errors : sum local = 2.22885e-10, global = -2.54304e-12, cumulative = -1.82108e-10
GAMG:  Solving for p, Initial residual = 3.60065e-05, Final residual = 4.84412e-07, No Iterations 3
time step continuity errors : sum local = 2.52183e-11, global = -1.82206e-12, cumulative = -1.83931e-10
smoothSolver:  Solving for epsilon, Initial residual = 0.00285542, Final residual = 6.91812e-06, No Iterations 2
bounding epsilon, min: -0.007275 max: 594.131 average: 1.95918
smoothSolver:  Solving for k, Initial residual = 0.00257389, Final residual = 7.1657e-06, No Iterations 2
ExecutionTime = 2.87 s  ClockTime = 3 s

Time = 0.0084

Courant Number mean: 0.000273316 max: 0.0307732
smoothSolver:  Solving for Ux, Initial residual = 0.00576554, Final residual = 4.71446e-07, No Iterations 3
smoothSolver:  Solving for Uy, Initial residual = 0.00803612, Final residual = 7.72988e-06, No Iterations 2
smoothSolver:  Solving for Uz, Initial residual = 0.00761536, Final residual = 5.29259e-06, No Iterations 2
GAMG:  Solving for p, Initial residual = 0.00865933, Final residual = 0.000432723, No Iterations 1
time step continuity errors : sum local = 2.24006e-08, global = -6.8009e-13, cumulative = -1.84611e-10
GAMG:  Solving for p, Initial residual = 0.00134279, Final residual = 0.000118389, No Iterations 1
time step continuity errors : sum local = 6.08655e-09, global = -6.83211e-13, cumulative = -1.85294e-10
GAMG:  Solving for p, Initial residual = 0.000311314, Final residual = 1.23664e-05, No Iterations 2
time step continuity errors : sum local = 6.35641e-10, global = -3.88692e-13, cumulative = -1.85683e-10
GAMG:  Solving for p, Initial residual = 0.000103481, Final residual = 7.35544e-06, No Iterations 1
time step continuity errors : sum local = 3.78061e-10, global = -3.45524e-13, cumulative = -1.86028e-10
GAMG:  Solving for p, Initial residual = 1.87059e-05, Final residual = 6.06733e-07, No Iterations 3
time step continuity errors : sum local = 3.11845e-11, global = -2.5679e-13, cumulative = -1.86285e-10
smoothSolver:  Solving for epsilon, Initial residual = 0.00276684, Final residual = 6.52892e-06, No Iterations 2
smoothSolver:  Solving for k, Initial residual = 0.00247679, Final residual = 6.67568e-06, No Iterations 2
ExecutionTime = 2.93 s  ClockTime = 3 s

Time = 0.0086

Courant Number mean: 0.000277006 max: 0.0308187
smoothSolver:  Solving for Ux, Initial residual = 0.00562997, Final residual = 9.79609e-06, No Iterations 2
smoothSolver:  Solving for Uy, Initial residual = 0.00782777, Final residual = 7.37962e-06, No Iterations 2
smoothSolver:  Solving for Uz, Initial residual = 0.00743526, Final residual = 5.00617e-06, No Iterations 2
GAMG:  Solving for p, Initial residual = 0.00829629, Final residual = 0.000372923, No Iterations 1
time step continuity errors : sum local = 1.90603e-08, global = 9.04643e-13, cumulative = -1.8538e-10
GAMG:  Solving for p, Initial residual = 0.00124282, Final residual = 0.000101297, No Iterations 1
time step continuity errors : sum local = 5.14223e-09, global = 9.12224e-13, cumulative = -1.84468e-10
GAMG:  Solving for p, Initial residual = 0.000278252, Final residual = 9.84622e-06, No Iterations 2
time step continuity errors : sum local = 4.99724e-10, global = 1.24104e-12, cumulative = -1.83227e-10
GAMG:  Solving for p, Initial residual = 8.86085e-05, Final residual = 6.4682e-06, No Iterations 1
time step continuity errors : sum local = 3.28272e-10, global = 1.30817e-12, cumulative = -1.81919e-10
GAMG:  Solving for p, Initial residual = 1.60963e-05, Final residual = 5.52815e-07, No Iterations 3
time step continuity errors : sum local = 2.80558e-11, global = 9.74505e-13, cumulative = -1.80944e-10
smoothSolver:  Solving for epsilon, Initial residual = 0.00268445, Final residual = 6.16711e-06, No Iterations 2
bounding epsilon, min: -0.00330187 max: 590.968 average: 2
smoothSolver:  Solving for k, Initial residual = 0.00238476, Final residual = 6.22525e-06, No Iterations 2
ExecutionTime = 2.99 s  ClockTime = 3 s

Time = 0.0088

Courant Number mean: 0.000280661 max: 0.0308656
smoothSolver:  Solving for Ux, Initial residual = 0.00550769, Final residual = 9.46121e-06, No Iterations 2
smoothSolver:  Solving for Uy, Initial residual = 0.00765961, Final residual = 7.09687e-06, No Iterations 2
smoothSolver:  Solving for Uz, Initial residual = 0.00726896, Final residual = 4.74566e-06, No Iterations 2
GAMG:  Solving for p, Initial residual = 0.00798357, Final residual = 0.000361144, No Iterations 1
time step continuity errors : sum local = 1.82302e-08, global = 2.44461e-12, cumulative = -1.785e-10
GAMG:  Solving for p, Initial residual = 0.00120627, Final residual = 0.000100797, No Iterations 1
time step continuity errors : sum local = 5.0548e-09, global = 2.21856e-12, cumulative = -1.76281e-10
GAMG:  Solving for p, Initial residual = 0.000264715, Final residual = 9.75085e-06, No Iterations 2
time step continuity errors : sum local = 4.88886e-10, global = 2.17189e-12, cumulative = -1.74109e-10
GAMG:  Solving for p, Initial residual = 8.06949e-05, Final residual = 5.85909e-06, No Iterations 1
time step continuity errors : sum local = 2.93755e-10, global = 2.10107e-12, cumulative = -1.72008e-10
GAMG:  Solving for p, Initial residual = 1.46442e-05, Final residual = 5.18471e-07, No Iterations 3
time step continuity errors : sum local = 2.5994e-11, global = 1.29581e-12, cumulative = -1.70712e-10
smoothSolver:  Solving for epsilon, Initial residual = 0.00260572, Final residual = 5.83098e-06, No Iterations 2
smoothSolver:  Solving for k, Initial residual = 0.00229691, Final residual = 5.81392e-06, No Iterations 2
ExecutionTime = 3.05 s  ClockTime = 3 s

Time = 0.009

Courant Number mean: 0.000284308 max: 0.0309158
smoothSolver:  Solving for Ux, Initial residual = 0.00538991, Final residual = 9.13446e-06, No Iterations 2
smoothSolver:  Solving for Uy, Initial residual = 0.00748589, Final residual = 6.77383e-06, No Iterations 2
smoothSolver:  Solving for Uz, Initial residual = 0.00711727, Final residual = 4.506e-06, No Iterations 2
GAMG:  Solving for p, Initial residual = 0.00800471, Final residual = 0.00035843, No Iterations 1
time step continuity errors : sum local = 1.78762e-08, global = 2.49168e-13, cumulative = -1.70463e-10
GAMG:  Solving for p, Initial residual = 0.00120843, Final residual = 9.79828e-05, No Iterations 1
time step continuity errors : sum local = 4.85548e-09, global = 9.8299e-14, cumulative = -1.70365e-10
GAMG:  Solving for p, Initial residual = 0.0002695, Final residual = 9.67002e-06, No Iterations 2
time step continuity errors : sum local = 4.7909e-10, global = 8.15265e-14, cumulative = -1.70283e-10
GAMG:  Solving for p, Initial residual = 8.54735e-05, Final residual = 6.59608e-06, No Iterations 1
time step continuity errors : sum local = 3.26791e-10, global = 3.84735e-15, cumulative = -1.70279e-10
GAMG:  Solving for p, Initial residual = 1.52754e-05, Final residual = 5.53732e-07, No Iterations 3
time step continuity errors : sum local = 2.74334e-11, global = -4.7868e-13, cumulative = -1.70758e-10
smoothSolver:  Solving for epsilon, Initial residual = 0.00253172, Final residual = 5.51849e-06, No Iterations 2
smoothSolver:  Solving for k, Initial residual = 0.00221371, Final residual = 5.43242e-06, No Iterations 2
ExecutionTime = 3.11 s  ClockTime = 3 s

Time = 0.0092

Courant Number mean: 0.000287955 max: 0.0309655
smoothSolver:  Solving for Ux, Initial residual = 0.00528034, Final residual = 8.82499e-06, No Iterations 2
smoothSolver:  Solving for Uy, Initial residual = 0.00733852, Final residual = 6.54425e-06, No Iterations 2
smoothSolver:  Solving for Uz, Initial residual = 0.0069675, Final residual = 4.2927e-06, No Iterations 2
GAMG:  Solving for p, Initial residual = 0.00800705, Final residual = 0.000368331, No Iterations 1
time step continuity errors : sum local = 1.81541e-08, global = -3.82764e-12, cumulative = -1.74586e-10
GAMG:  Solving for p, Initial residual = 0.00121838, Final residual = 9.74187e-05, No Iterations 1
time step continuity errors : sum local = 4.77133e-09, global = -3.98454e-12, cumulative = -1.7857e-10
GAMG:  Solving for p, Initial residual = 0.000261438, Final residual = 9.22175e-06, No Iterations 2
time step continuity errors : sum local = 4.51557e-10, global = -3.9468e-12, cumulative = -1.82517e-10
GAMG:  Solving for p, Initial residual = 8.16023e-05, Final residual = 5.85704e-06, No Iterations 1
time step continuity errors : sum local = 2.86787e-10, global = -3.99498e-12, cumulative = -1.86512e-10
GAMG:  Solving for p, Initial residual = 1.54277e-05, Final residual = 5.46163e-07, No Iterations 3
time step continuity errors : sum local = 2.6742e-11, global = -2.90607e-12, cumulative = -1.89418e-10
smoothSolver:  Solving for epsilon, Initial residual = 0.00246018, Final residual = 5.2237e-06, No Iterations 2
bounding epsilon, min: -0.00331053 max: 582.175 average: 2.05252
smoothSolver:  Solving for k, Initial residual = 0.00213531, Final residual = 5.08507e-06, No Iterations 2
ExecutionTime = 3.17 s  ClockTime = 4 s

Time = 0.0094

Courant Number mean: 0.000291565 max: 0.0310148
[...]
smoothSolver:  Solving for Ux, Initial residual = 0.00269419, Final residual = 2.77417e-06, No Iterations 2
smoothSolver:  Solving for Uy, Initial residual = 0.0036757, Final residual = 1.95245e-06, No Iterations 2
smoothSolver:  Solving for Uz, Initial residual = 0.003885, Final residual = 9.66836e-07, No Iterations 2
GAMG:  Solving for p, Initial residual = 0.0047751, Final residual = 0.000227214, No Iterations 1
time step continuity errors : sum local = 7.50343e-09, global = 8.63685e-13, cumulative = -2.01465e-10
GAMG:  Solving for p, Initial residual = 0.000726567, Final residual = 6.31995e-05, No Iterations 1
time step continuity errors : sum local = 2.07872e-09, global = 8.76654e-13, cumulative = -2.00589e-10
GAMG:  Solving for p, Initial residual = 0.000152681, Final residual = 6.39911e-06, No Iterations 2
time step continuity errors : sum local = 2.10446e-10, global = 1.05394e-12, cumulative = -1.99535e-10
GAMG:  Solving for p, Initial residual = 5.33682e-05, Final residual = 3.89163e-06, No Iterations 1
time step continuity errors : sum local = 1.2798e-10, global = 1.13972e-12, cumulative = -1.98395e-10
GAMG:  Solving for p, Initial residual = 1.01014e-05, Final residual = 7.80154e-07, No Iterations 2
time step continuity errors : sum local = 2.56558e-11, global = 1.03923e-12, cumulative = -1.97356e-10
smoothSolver:  Solving for epsilon, Initial residual = 0.000827024, Final residual = 7.38508e-07, No Iterations 2
smoothSolver:  Solving for k, Initial residual = 0.000843059, Final residual = 9.59093e-07, No Iterations 2
ExecutionTime = 5.86 s  ClockTime = 6 s

Time = 0.018

Courant Number mean: 0.0004323 max: 0.0350969
smoothSolver:  Solving for Ux, Initial residual = 0.00266383, Final residual = 2.71855e-06, No Iterations 2
smoothSolver:  Solving for Uy, Initial residual = 0.00363538, Final residual = 1.91124e-06, No Iterations 2
smoothSolver:  Solving for Uz, Initial residual = 0.00384418, Final residual = 9.42497e-07, No Iterations 2
GAMG:  Solving for p, Initial residual = 0.00457752, Final residual = 0.000211132, No Iterations 1
time step continuity errors : sum local = 6.92037e-09, global = 1.2185e-12, cumulative = -1.96137e-10
GAMG:  Solving for p, Initial residual = 0.000696804, Final residual = 5.51897e-05, No Iterations 1
time step continuity errors : sum local = 1.80205e-09, global = 1.15713e-12, cumulative = -1.9498e-10
GAMG:  Solving for p, Initial residual = 0.000141466, Final residual = 5.73454e-06, No Iterations 2
time step continuity errors : sum local = 1.8722e-10, global = 1.08757e-12, cumulative = -1.93893e-10
GAMG:  Solving for p, Initial residual = 4.62213e-05, Final residual = 3.4614e-06, No Iterations 1
time step continuity errors : sum local = 1.13005e-10, global = 1.09256e-12, cumulative = -1.928e-10
GAMG:  Solving for p, Initial residual = 9.01381e-06, Final residual = 7.04236e-07, No Iterations 2
time step continuity errors : sum local = 2.29909e-11, global = 8.76924e-13, cumulative = -1.91923e-10
smoothSolver:  Solving for epsilon, Initial residual = 0.000811224, Final residual = 7.15493e-07, No Iterations 2
smoothSolver:  Solving for k, Initial residual = 0.000835653, Final residual = 9.52756e-07, No Iterations 2
ExecutionTime = 5.97 s  ClockTime = 6 s

Time = 0.0182

Courant Number mean: 0.000435368 max: 0.0352232
smoothSolver:  Solving for Ux, Initial residual = 0.00263279, Final residual = 2.66438e-06, No Iterations 2
smoothSolver:  Solving for Uy, Initial residual = 0.00358908, Final residual = 1.87699e-06, No Iterations 2
smoothSolver:  Solving for Uz, Initial residual = 0.00380668, Final residual = 9.19209e-07, No Iterations 2
GAMG:  Solving for p, Initial residual = 0.00460646, Final residual = 0.000224552, No Iterations 1
time step continuity errors : sum local = 7.30602e-09, global = 5.79523e-13, cumulative = -1.91344e-10
GAMG:  Solving for p, Initial residual = 0.000689243, Final residual = 5.99816e-05, No Iterations 1
time step continuity errors : sum local = 1.9439e-09, global = 5.15368e-13, cumulative = -1.90828e-10
GAMG:  Solving for p, Initial residual = 0.00014799, Final residual = 6.43612e-06, No Iterations 2
time step continuity errors : sum local = 2.08559e-10, global = 6.83018e-13, cumulative = -1.90145e-10
GAMG:  Solving for p, Initial residual = 5.16819e-05, Final residual = 3.95305e-06, No Iterations 1
time step continuity errors : sum local = 1.28093e-10, global = 7.1046e-13, cumulative = -1.89435e-10
GAMG:  Solving for p, Initial residual = 9.89616e-06, Final residual = 7.94711e-07, No Iterations 2
time step continuity errors : sum local = 2.5751e-11, global = 6.6813e-13, cumulative = -1.88767e-10
smoothSolver:  Solving for epsilon, Initial residual = 0.00079632, Final residual = 6.94492e-07, No Iterations 2
smoothSolver:  Solving for k, Initial residual = 0.00082874, Final residual = 9.48058e-07, No Iterations 2
ExecutionTime = 6.03 s  ClockTime = 6 s

Time = 0.0184

Courant Number mean: 0.00043843 max: 0.0353509
smoothSolver:  Solving for Ux, Initial residual = 0.00260171, Final residual = 2.61106e-06, No Iterations 2
smoothSolver:  Solving for Uy, Initial residual = 0.00354861, Final residual = 1.84022e-06, No Iterations 2
smoothSolver:  Solving for Uz, Initial residual = 0.00376894, Final residual = 8.99878e-07, No Iterations 2
GAMG:  Solving for p, Initial residual = 0.00453656, Final residual = 0.000220449, No Iterations 1
time step continuity errors : sum local = 7.11916e-09, global = 2.64193e-13, cumulative = -1.88502e-10
GAMG:  Solving for p, Initial residual = 0.000676711, Final residual = 5.66624e-05, No Iterations 1
time step continuity errors : sum local = 1.82271e-09, global = 3.13855e-13, cumulative = -1.88189e-10
GAMG:  Solving for p, Initial residual = 0.000141225, Final residual = 5.99635e-06, No Iterations 2
time step continuity errors : sum local = 1.92867e-10, global = 6.66402e-13, cumulative = -1.87522e-10
GAMG:  Solving for p, Initial residual = 4.75393e-05, Final residual = 3.69689e-06, No Iterations 1
time step continuity errors : sum local = 1.18904e-10, global = 7.77573e-13, cumulative = -1.86745e-10
GAMG:  Solving for p, Initial residual = 9.38911e-06, Final residual = 7.69512e-07, No Iterations 2
time step continuity errors : sum local = 2.47497e-11, global = 8.76851e-13, cumulative = -1.85868e-10
smoothSolver:  Solving for epsilon, Initial residual = 0.000782432, Final residual = 6.73875e-07, No Iterations 2
smoothSolver:  Solving for k, Initial residual = 0.000822262, Final residual = 9.44552e-07, No Iterations 2
ExecutionTime = 6.08 s  ClockTime = 6 s

Time = 0.0186

Courant Number mean: 0.000441479 max: 0.0354769
smoothSolver:  Solving for Ux, Initial residual = 0.00257178, Final residual = 2.55883e-06, No Iterations 2
smoothSolver:  Solving for Uy, Initial residual = 0.00350246, Final residual = 1.80579e-06, No Iterations 2
smoothSolver:  Solving for Uz, Initial residual = 0.00373359, Final residual = 8.79812e-07, No Iterations 2
GAMG:  Solving for p, Initial residual = 0.0044493, Final residual = 0.000207942, No Iterations 1
time step continuity errors : sum local = 6.66657e-09, global = 9.95904e-13, cumulative = -1.84872e-10
GAMG:  Solving for p, Initial residual = 0.000654042, Final residual = 5.40218e-05, No Iterations 1
time step continuity errors : sum local = 1.72548e-09, global = 9.86712e-13, cumulative = -1.83885e-10
GAMG:  Solving for p, Initial residual = 0.000141209, Final residual = 5.46772e-06, No Iterations 2
time step continuity errors : sum local = 1.74623e-10, global = 1.20846e-12, cumulative = -1.82677e-10
GAMG:  Solving for p, Initial residual = 4.51024e-05, Final residual = 3.4496e-06, No Iterations 1
time step continuity errors : sum local = 1.10168e-10, global = 1.19223e-12, cumulative = -1.81484e-10
GAMG:  Solving for p, Initial residual = 8.55234e-06, Final residual = 6.90123e-07, No Iterations 2
time step continuity errors : sum local = 2.20399e-11, global = 1.11341e-12, cumulative = -1.80371e-10
smoothSolver:  Solving for epsilon, Initial residual = 0.000769445, Final residual = 6.55028e-07, No Iterations 2
smoothSolver:  Solving for k, Initial residual = 0.000816027, Final residual = 9.42133e-07, No Iterations 2
ExecutionTime = 6.13 s  ClockTime = 7 s

Time = 0.0188

Courant Number mean: 0.000444519 max: 0.0356027
smoothSolver:  Solving for Ux, Initial residual = 0.0025421, Final residual = 2.50733e-06, No Iterations 2
smoothSolver:  Solving for Uy, Initial residual = 0.00346956, Final residual = 1.7723e-06, No Iterations 2
smoothSolver:  Solving for Uz, Initial residual = 0.00369877, Final residual = 8.59594e-07, No Iterations 2
GAMG:  Solving for p, Initial residual = 0.00431731, Final residual = 0.000207123, No Iterations 1
time step continuity errors : sum local = 6.59429e-09, global = 1.16359e-12, cumulative = -1.79207e-10
GAMG:  Solving for p, Initial residual = 0.000628994, Final residual = 5.44685e-05, No Iterations 1
time step continuity errors : sum local = 1.72789e-09, global = 1.22181e-12, cumulative = -1.77986e-10
GAMG:  Solving for p, Initial residual = 0.000136343, Final residual = 5.59783e-06, No Iterations 2
time step continuity errors : sum local = 1.77559e-10, global = 1.17921e-12, cumulative = -1.76806e-10
GAMG:  Solving for p, Initial residual = 4.5124e-05, Final residual = 3.43049e-06, No Iterations 1
time step continuity errors : sum local = 1.0881e-10, global = 1.14526e-12, cumulative = -1.75661e-10
GAMG:  Solving for p, Initial residual = 8.61056e-06, Final residual = 6.73595e-07, No Iterations 2
time step continuity errors : sum local = 2.13652e-11, global = 9.8508e-13, cumulative = -1.74676e-10
smoothSolver:  Solving for epsilon, Initial residual = 0.00075746, Final residual = 6.37634e-07, No Iterations 2
smoothSolver:  Solving for k, Initial residual = 0.000810072, Final residual = 9.40873e-07, No Iterations 2
bounding k, min: -0.000123729 max: 2.5379 average: 0.0409475
ExecutionTime = 6.19 s  ClockTime = 7 s

Time = 0.019

Courant Number mean: 0.000447551 max: 0.0357282
smoothSolver:  Solving for Ux, Initial residual = 0.00336507, Final residual = 6.76493e-06, No Iterations 7
smoothSolver:  Solving for Uy, Initial residual = 0.00559799, Final residual = 8.04371e-06, No Iterations 5
smoothSolver:  Solving for Uz, Initial residual = 0.00559441, Final residual = 9.89681e-06, No Iterations 4
GAMG:  Solving for p, Initial residual = 0.0185683, Final residual = 0.000497949, No Iterations 2
time step continuity errors : sum local = 1.59544e-08, global = -6.62892e-12, cumulative = -1.81305e-10
GAMG:  Solving for p, Initial residual = 0.00687242, Final residual = 0.000533873, No Iterations 1
time step continuity errors : sum local = 1.73088e-08, global = -2.89895e-12, cumulative = -1.84204e-10
GAMG:  Solving for p, Initial residual = 0.00188226, Final residual = 0.000116312, No Iterations 2
time step continuity errors : sum local = 3.77498e-09, global = -3.36161e-12, cumulative = -1.87566e-10
GAMG:  Solving for p, Initial residual = 0.000818973, Final residual = 4.74091e-05, No Iterations 2
time step continuity errors : sum local = 1.53861e-09, global = -4.94747e-12, cumulative = -1.92513e-10
GAMG:  Solving for p, Initial residual = 0.000327285, Final residual = 5.53267e-07, No Iterations 8
time step continuity errors : sum local = 1.79543e-11, global = -1.17684e-12, cumulative = -1.9369e-10
smoothSolver:  Solving for epsilon, Initial residual = 0.000752191, Final residual = 6.22025e-07, No Iterations 2
bounding epsilon, min: -0.337074 max: 317.304 average: 2.11469
smoothSolver:  Solving for k, Initial residual = 0.000852737, Final residual = 5.09257e-06, No Iterations 2
ExecutionTime = 6.26 s  ClockTime = 7 s

Time = 0.0192

Courant Number mean: 0.000450496 max: 0.0358532
smoothSolver:  Solving for Ux, Initial residual = 0.00270218, Final residual = 2.40375e-06, No Iterations 2
smoothSolver:  Solving for Uy, Initial residual = 0.00505324, Final residual = 2.04528e-06, No Iterations 2
smoothSolver:  Solving for Uz, Initial residual = 0.00405832, Final residual = 9.19047e-07, No Iterations 2
GAMG:  Solving for p, Initial residual = 0.0239323, Final residual = 0.000867125, No Iterations 2
time step continuity errors : sum local = 2.79622e-08, global = 7.40056e-12, cumulative = -1.86289e-10
GAMG:  Solving for p, Initial residual = 0.00734606, Final residual = 0.000640297, No Iterations 1
time step continuity errors : sum local = 2.01856e-08, global = 3.26763e-12, cumulative = -1.83022e-10
GAMG:  Solving for p, Initial residual = 0.00198992, Final residual = 0.000115731, No Iterations 2
time step continuity errors : sum local = 3.64192e-09, global = 5.64517e-12, cumulative = -1.77377e-10
GAMG:  Solving for p, Initial residual = 0.000717128, Final residual = 3.65855e-05, No Iterations 2
time step continuity errors : sum local = 1.15091e-09, global = 1.07849e-11, cumulative = -1.66592e-10
GAMG:  Solving for p, Initial residual = 0.000223936, Final residual = 8.28051e-07, No Iterations 6
time step continuity errors : sum local = 2.60496e-11, global = 1.50816e-12, cumulative = -1.65083e-10
smoothSolver:  Solving for epsilon, Initial residual = 0.000736776, Final residual = 6.08194e-07, No Iterations 2
smoothSolver:  Solving for k, Initial residual = 0.000799186, Final residual = 9.40709e-07, No Iterations 2
ExecutionTime = 6.32 s  ClockTime = 7 s

Time = 0.0194

Courant Number mean: 0.000453497 max: 0.0359782
smoothSolver:  Solving for Ux, Initial residual = 0.00249161, Final residual = 2.36821e-06, No Iterations 2
smoothSolver:  Solving for Uy, Initial residual = 0.00356924, Final residual = 1.70546e-06, No Iterations 2
smoothSolver:  Solving for Uz, Initial residual = 0.00358684, Final residual = 8.01276e-07, No Iterations 2
GAMG:  Solving for p, Initial residual = 0.0062467, Final residual = 0.000409392, No Iterations 1
time step continuity errors : sum local = 1.28197e-08, global = 4.9886e-12, cumulative = -1.60095e-10
GAMG:  Solving for p, Initial residual = 0.00116172, Final residual = 4.88242e-05, No Iterations 2
time step continuity errors : sum local = 1.5208e-09, global = 5.69422e-12, cumulative = -1.54401e-10
GAMG:  Solving for p, Initial residual = 0.000427398, Final residual = 3.60072e-05, No Iterations 1
time step continuity errors : sum local = 1.12151e-09, global = 5.80305e-12, cumulative = -1.48598e-10
GAMG:  Solving for p, Initial residual = 8.21408e-05, Final residual = 7.94469e-06, No Iterations 2
time step continuity errors : sum local = 2.47443e-10, global = 6.2341e-12, cumulative = -1.42363e-10
GAMG:  Solving for p, Initial residual = 5.84984e-05, Final residual = 8.91421e-07, No Iterations 4
time step continuity errors : sum local = 2.77641e-11, global = 1.81926e-12, cumulative = -1.40544e-10
smoothSolver:  Solving for epsilon, Initial residual = 0.000727985, Final residual = 5.9481e-07, No Iterations 2
smoothSolver:  Solving for k, Initial residual = 0.000794036, Final residual = 9.40473e-07, No Iterations 2
ExecutionTime = 6.38 s  ClockTime = 7 s

Time = 0.0196

Courant Number mean: 0.000456501 max: 0.0361042
smoothSolver:  Solving for Ux, Initial residual = 0.00244546, Final residual = 2.32108e-06, No Iterations 2
smoothSolver:  Solving for Uy, Initial residual = 0.00338712, Final residual = 1.64956e-06, No Iterations 2
smoothSolver:  Solving for Uz, Initial residual = 0.00355297, Final residual = 7.84525e-07, No Iterations 2
GAMG:  Solving for p, Initial residual = 0.00471868, Final residual = 0.000242802, No Iterations 1
time step continuity errors : sum local = 7.53657e-09, global = 2.12119e-12, cumulative = -1.38423e-10
GAMG:  Solving for p, Initial residual = 0.000719824, Final residual = 6.381e-05, No Iterations 1
time step continuity errors : sum local = 1.97295e-09, global = 2.27447e-12, cumulative = -1.36149e-10
GAMG:  Solving for p, Initial residual = 0.00016868, Final residual = 7.49286e-06, No Iterations 2
time step continuity errors : sum local = 2.31654e-10, global = 2.34165e-12, cumulative = -1.33807e-10
GAMG:  Solving for p, Initial residual = 5.61821e-05, Final residual = 4.73308e-06, No Iterations 1
time step continuity errors : sum local = 1.46327e-10, global = 2.3262e-12, cumulative = -1.31481e-10
GAMG:  Solving for p, Initial residual = 1.13917e-05, Final residual = 5.70168e-07, No Iterations 3
time step continuity errors : sum local = 1.7627e-11, global = 1.54881e-12, cumulative = -1.29932e-10
smoothSolver:  Solving for epsilon, Initial residual = 0.000719726, Final residual = 5.82301e-07, No Iterations 2
smoothSolver:  Solving for k, Initial residual = 0.000789094, Final residual = 9.40967e-07, No Iterations 2
ExecutionTime = 6.44 s  ClockTime = 7 s

Time = 0.0198

Courant Number mean: 0.000459497 max: 0.0362295
smoothSolver:  Solving for Ux, Initial residual = 0.00241371, Final residual = 2.27553e-06, No Iterations 2
smoothSolver:  Solving for Uy, Initial residual = 0.00333542, Final residual = 1.61681e-06, No Iterations 2
smoothSolver:  Solving for Uz, Initial residual = 0.00352373, Final residual = 7.66691e-07, No Iterations 2
GAMG:  Solving for p, Initial residual = 0.00450076, Final residual = 0.000219711, No Iterations 1
time step continuity errors : sum local = 6.77024e-09, global = 1.02225e-12, cumulative = -1.2891e-10
GAMG:  Solving for p, Initial residual = 0.000674128, Final residual = 5.77258e-05, No Iterations 1
time step continuity errors : sum local = 1.77207e-09, global = 1.05904e-12, cumulative = -1.27851e-10
GAMG:  Solving for p, Initial residual = 0.000145932, Final residual = 6.05931e-06, No Iterations 2
time step continuity errors : sum local = 1.85991e-10, global = 1.20634e-12, cumulative = -1.26644e-10
GAMG:  Solving for p, Initial residual = 4.78402e-05, Final residual = 3.66563e-06, No Iterations 1
time step continuity errors : sum local = 1.12514e-10, global = 1.22785e-12, cumulative = -1.25416e-10
GAMG:  Solving for p, Initial residual = 9.29434e-06, Final residual = 7.47381e-07, No Iterations 2
time step continuity errors : sum local = 2.29401e-11, global = 1.19742e-12, cumulative = -1.24219e-10
smoothSolver:  Solving for epsilon, Initial residual = 0.000711837, Final residual = 5.70877e-07, No Iterations 2
smoothSolver:  Solving for k, Initial residual = 0.000784501, Final residual = 9.41279e-07, No Iterations 2
ExecutionTime = 6.49 s  ClockTime = 7 s

Time = 0.02

Courant Number mean: 0.000462484 max: 0.0363526
smoothSolver:  Solving for Ux, Initial residual = 0.00238573, Final residual = 2.23166e-06, No Iterations 2
smoothSolver:  Solving for Uy, Initial residual = 0.00329796, Final residual = 1.58105e-06, No Iterations 2
smoothSolver:  Solving for Uz, Initial residual = 0.00349356, Final residual = 7.54479e-07, No Iterations 2
GAMG:  Solving for p, Initial residual = 0.00428525, Final residual = 0.000204691, No Iterations 1
time step continuity errors : sum local = 6.26379e-09, global = 7.29003e-13, cumulative = -1.2349e-10
GAMG:  Solving for p, Initial residual = 0.000626191, Final residual = 5.35762e-05, No Iterations 1
time step continuity errors : sum local = 1.63374e-09, global = 7.02226e-13, cumulative = -1.22788e-10
GAMG:  Solving for p, Initial residual = 0.000133735, Final residual = 5.24823e-06, No Iterations 2
time step continuity errors : sum local = 1.60022e-10, global = 8.70752e-13, cumulative = -1.21917e-10
GAMG:  Solving for p, Initial residual = 4.19421e-05, Final residual = 3.28686e-06, No Iterations 1
time step continuity errors : sum local = 1.00217e-10, global = 8.62048e-13, cumulative = -1.21055e-10
GAMG:  Solving for p, Initial residual = 8.07908e-06, Final residual = 6.54304e-07, No Iterations 2
time step continuity errors : sum local = 1.99496e-11, global = 8.1919e-13, cumulative = -1.20236e-10
smoothSolver:  Solving for epsilon, Initial residual = 0.000704359, Final residual = 5.61274e-07, No Iterations 2
smoothSolver:  Solving for k, Initial residual = 0.000780223, Final residual = 9.41385e-07, No Iterations 2
ExecutionTime = 6.62 s  ClockTime = 7 s

End

